<net xmlns:xsi="http://www.w3.org/2001/XMLSchema-instance" version="1.20" junctionCornerDetail="5" limitTurnSpeed="5.50" xsi:noNamespaceSchemaLocation="http://sumo.dlr.de/xsd/net_file.xsd">

    <location netOffset="-384332.16,-144826.34" convBoundary="0.00,0.00,7907.04,9025.26" origBoundary="103.955743,1.309898,104.039609,1.392930" projParameter="+proj=utm +zone=48 +ellps=WGS84 +datum=WGS84 +units=m +no_defs" />

    <type id="highway.motorway" priority="14" numLanes="2" speed="39.44" allow="private emergency authority army vip passenger hov taxi bus coach delivery truck trailer motorcycle evehicle custom1 custom2" oneway="1" />
    <type id="highway.motorway_link" priority="9" numLanes="1" speed="22.22" allow="private emergency authority army vip passenger hov taxi bus coach delivery truck trailer motorcycle evehicle custom1 custom2" oneway="1" />
    <type id="highway.primary" priority="12" numLanes="2" speed="27.78" disallow="tram rail_urban rail rail_electric rail_fast ship container cable_car subway aircraft wheelchair scooter drone" oneway="0" />
    <type id="highway.primary_link" priority="7" numLanes="1" speed="22.22" disallow="tram rail_urban rail rail_electric rail_fast ship container cable_car subway aircraft wheelchair scooter drone" oneway="0" />
    <type id="highway.residential" priority="3" numLanes="1" speed="13.89" disallow="tram rail_urban rail rail_electric rail_fast ship container cable_car subway aircraft wheelchair scooter drone" oneway="0" />
    <type id="highway.secondary" priority="11" numLanes="1" speed="27.78" disallow="tram rail_urban rail rail_electric rail_fast ship container cable_car subway aircraft wheelchair scooter drone" oneway="0" />
    <type id="highway.secondary_link" priority="6" numLanes="1" speed="22.22" disallow="tram rail_urban rail rail_electric rail_fast ship container cable_car subway aircraft wheelchair scooter drone" oneway="0" />
    <type id="highway.tertiary" priority="10" numLanes="1" speed="22.22" disallow="tram rail_urban rail rail_electric rail_fast ship container cable_car subway aircraft wheelchair scooter drone" oneway="0" />
    <type id="highway.tertiary_link" priority="5" numLanes="1" speed="22.22" disallow="tram rail_urban rail rail_electric rail_fast ship container cable_car subway aircraft wheelchair scooter drone" oneway="0" />
    <type id="highway.trunk" priority="13" numLanes="2" speed="27.78" disallow="pedestrian bicycle tram rail_urban rail rail_electric rail_fast ship container cable_car subway aircraft wheelchair scooter drone" oneway="0" />
    <type id="highway.trunk_link" priority="8" numLanes="1" speed="22.22" disallow="pedestrian bicycle tram rail_urban rail rail_electric rail_fast ship container cable_car subway aircraft wheelchair scooter drone" oneway="0" />
    <type id="highway.unclassified" priority="4" numLanes="1" speed="13.89" disallow="tram rail_urban rail rail_electric rail_fast ship container cable_car subway aircraft wheelchair scooter drone" oneway="0" />

    <edge id=":10196780387_0" function="internal">
        <lane id=":10196780387_0_0" index="0" disallow="tram rail_urban rail rail_electric rail_fast ship container cable_car subway aircraft wheelchair scooter drone" speed="13.89" length="8.19" shape="2365.75,3467.20 2363.64,3468.34 2362.38,3469.46 2361.13,3470.59 2359.04,3471.77" />
        <lane id=":10196780387_0_1" index="1" disallow="tram rail_urban rail rail_electric rail_fast ship container cable_car subway aircraft wheelchair scooter drone" speed="13.89" length="8.19" shape="2365.75,3467.20 2363.44,3467.88 2361.75,3467.99 2360.06,3468.11 2357.76,3468.84" />
    </edge>
    <edge id=":10226008242_0" function="internal">
        <lane id=":10226008242_0_0" index="0" disallow="tram rail_urban rail rail_electric rail_fast ship container cable_car subway aircraft wheelchair scooter drone" speed="13.89" length="9.86" shape="3239.77,1078.28 3239.16,1075.60 3239.67,1073.65 3240.51,1071.64 3240.90,1068.74" />
    </edge>
    <edge id=":10226008242_1" function="internal">
        <lane id=":10226008242_1_0" index="0" disallow="tram rail_urban rail rail_electric rail_fast ship container cable_car subway aircraft wheelchair scooter drone" speed="3.65" length="1.27" shape="3239.77,1078.28 3240.00,1077.02" />
    </edge>
    <edge id=":10226008242_4" function="internal">
        <lane id=":10226008242_4_0" index="0" disallow="tram rail_urban rail rail_electric rail_fast ship container cable_car subway aircraft wheelchair scooter drone" speed="3.65" length="3.40" shape="3240.00,1077.02 3240.03,1076.86 3240.61,1076.17 3241.50,1076.22 3242.71,1077.01" />
    </edge>
    <edge id=":10226008242_2" function="internal">
        <lane id=":10226008242_2_0" index="0" disallow="tram rail_urban rail rail_electric rail_fast ship container cable_car subway aircraft wheelchair scooter drone" speed="5.64" length="10.60" shape="3234.98,1071.05 3237.64,1073.25 3239.52,1073.61 3240.61,1072.10 3240.90,1068.74" />
    </edge>
    <edge id=":10226008242_3" function="internal">
        <lane id=":10226008242_3_0" index="0" disallow="tram rail_urban rail rail_electric rail_fast ship container cable_car subway aircraft wheelchair scooter drone" speed="13.89" length="10.01" shape="3234.98,1071.05 3237.35,1072.82 3239.40,1073.66 3241.16,1074.68 3242.71,1077.01" />
    </edge>
    <edge id=":1051060329#3-AddedOnRampNode_0" function="internal">
        <lane id=":1051060329#3-AddedOnRampNode_0_0" index="0" disallow="tram rail_urban rail rail_electric rail_fast ship container cable_car subway aircraft wheelchair scooter drone" speed="22.22" length="8.00" shape="4994.15,342.93 5000.77,347.43" />
    </edge>
    <edge id=":10598817285_0" function="internal">
        <lane id=":10598817285_0_0" index="0" disallow="tram rail_urban rail rail_electric rail_fast ship container cable_car subway aircraft wheelchair scooter drone" speed="3.65" length="4.67" shape="412.81,7083.39 412.20,7082.08 412.28,7081.19 413.04,7080.72 414.48,7080.66" />
    </edge>
    <edge id=":10653350709_0" function="internal">
        <lane id=":10653350709_0_0" index="0" disallow="tram rail_urban rail rail_electric rail_fast ship container cable_car subway aircraft wheelchair scooter drone" speed="22.22" length="7.81" shape="4496.62,7859.86 4495.73,7861.92 4494.66,7863.09 4493.40,7864.18 4491.98,7866.01" />
    </edge>
    <edge id=":10653350709_1" function="internal">
        <lane id=":10653350709_1_0" index="0" disallow="tram rail_urban rail rail_electric rail_fast ship container cable_car subway aircraft wheelchair scooter drone" speed="3.66" length="4.39" shape="4492.74,7866.31 4493.26,7864.79 4493.31,7864.24 4492.88,7864.64 4491.98,7866.01" />
    </edge>
    <edge id=":10653350709_2" function="internal">
        <lane id=":10653350709_2_0" index="0" disallow="tram rail_urban rail rail_electric rail_fast ship container cable_car subway aircraft wheelchair scooter drone" speed="22.22" length="7.44" shape="4492.74,7866.31 4493.27,7864.21 4493.25,7862.68 4493.17,7861.13 4493.55,7858.97" />
    </edge>
    <edge id=":10696646002_0" function="internal">
        <lane id=":10696646002_0_0" index="0" disallow="tram rail_urban rail rail_electric rail_fast ship container cable_car subway aircraft wheelchair scooter drone" speed="19.44" length="0.30" shape="548.11,6002.11 548.30,6002.30" />
        <lane id=":10696646002_0_1" index="1" disallow="tram rail_urban rail rail_electric rail_fast ship container cable_car subway aircraft wheelchair scooter drone" speed="19.44" length="0.30" shape="545.84,6004.37 546.05,6004.58" />
        <lane id=":10696646002_0_2" index="2" disallow="tram rail_urban rail rail_electric rail_fast ship container cable_car subway aircraft wheelchair scooter drone" speed="19.44" length="0.30" shape="543.57,6006.62 543.80,6006.85" />
    </edge>
    <edge id=":11025983465_0" function="internal">
        <lane id=":11025983465_0_0" index="0" disallow="tram rail_urban rail rail_electric rail_fast ship container cable_car subway aircraft wheelchair scooter drone" speed="27.78" length="0.26" shape="4873.27,205.52 4872.96,205.48" />
        <lane id=":11025983465_0_1" index="1" disallow="tram rail_urban rail rail_electric rail_fast ship container cable_car subway aircraft wheelchair scooter drone" speed="27.78" length="0.26" shape="4873.60,202.33 4873.37,202.31" />
    </edge>
    <edge id=":11346174773_0" function="internal">
        <lane id=":11346174773_0_0" index="0" disallow="tram rail_urban rail rail_electric rail_fast ship container cable_car subway aircraft wheelchair scooter drone" speed="3.65" length="4.67" shape="3966.97,3630.51 3966.74,3631.93 3966.17,3632.62 3965.28,3632.59 3964.06,3631.82" />
    </edge>
    <edge id=":11346175791_0" function="internal">
        <lane id=":11346175791_0_0" index="0" disallow="tram rail_urban rail rail_electric rail_fast ship container cable_car subway aircraft wheelchair scooter drone" speed="3.65" length="4.67" shape="4289.30,4402.74 4289.05,4404.16 4288.47,4404.84 4287.58,4404.79 4286.37,4404.01" />
    </edge>
    <edge id=":11346175798_0" function="internal">
        <lane id=":11346175798_0_0" index="0" disallow="tram rail_urban rail rail_electric rail_fast ship container cable_car subway aircraft wheelchair scooter drone" speed="5.52" length="9.51" shape="4926.88,5010.24 4926.11,5007.37 4924.85,5006.11 4923.10,5006.46 4920.87,5008.42" />
    </edge>
    <edge id=":11346175798_1" function="internal">
        <lane id=":11346175798_1_0" index="0" disallow="tram rail_urban rail rail_electric rail_fast ship container cable_car subway aircraft wheelchair scooter drone" speed="13.89" length="16.28" shape="4926.88,5010.24 4926.34,5006.33 4925.84,5002.16 4925.49,4997.99 4925.37,4994.04" />
    </edge>
    <edge id=":11346175798_2" function="internal">
        <lane id=":11346175798_2_0" index="0" disallow="tram rail_urban rail rail_electric rail_fast ship container cable_car subway aircraft wheelchair scooter drone" speed="3.65" length="1.44" shape="4926.88,5010.24 4927.50,5008.94" />
    </edge>
    <edge id=":11346175798_9" function="internal">
        <lane id=":11346175798_9_0" index="0" disallow="tram rail_urban rail rail_electric rail_fast ship container cable_car subway aircraft wheelchair scooter drone" speed="3.65" length="3.23" shape="4927.50,5008.94 4928.24,5008.43 4929.09,5008.71 4930.05,5009.79" />
    </edge>
    <edge id=":11346175798_3" function="internal">
        <lane id=":11346175798_3_0" index="0" disallow="tram rail_urban rail rail_electric rail_fast ship container cable_car subway aircraft wheelchair scooter drone" speed="13.89" length="15.80" shape="4928.57,4994.07 4928.68,4997.94 4929.02,5001.95 4929.51,5005.95 4930.05,5009.79" />
    </edge>
    <edge id=":11346175798_4" function="internal">
        <lane id=":11346175798_4_0" index="0" disallow="tram rail_urban rail rail_electric rail_fast ship container cable_car subway aircraft wheelchair scooter drone" speed="13.89" length="3.24" shape="4928.57,4994.07 4927.94,4997.25" />
    </edge>
    <edge id=":11346175798_5" function="internal">
        <lane id=":11346175798_5_0" index="0" disallow="tram rail_urban rail rail_electric rail_fast ship container cable_car subway aircraft wheelchair scooter drone" speed="3.65" length="1.44" shape="4928.57,4994.07 4927.76,4995.27" />
    </edge>
    <edge id=":11346175798_10" function="internal">
        <lane id=":11346175798_10_0" index="0" disallow="tram rail_urban rail rail_electric rail_fast ship container cable_car subway aircraft wheelchair scooter drone" speed="13.89" length="13.33" shape="4927.94,4997.25 4927.82,4997.90 4925.95,5001.73 4923.47,5005.31 4920.87,5008.42" />
    </edge>
    <edge id=":11346175798_11" function="internal">
        <lane id=":11346175798_11_0" index="0" disallow="tram rail_urban rail rail_electric rail_fast ship container cable_car subway aircraft wheelchair scooter drone" speed="3.65" length="3.23" shape="4927.76,4995.27 4926.96,4995.66 4926.16,4995.25 4925.37,4994.04" />
    </edge>
    <edge id=":11346175798_6" function="internal">
        <lane id=":11346175798_6_0" index="0" disallow="tram rail_urban rail rail_electric rail_fast ship container cable_car subway aircraft wheelchair scooter drone" speed="13.30" length="14.37" shape="4918.48,5006.29 4920.96,5003.51 4923.16,5000.64 4924.74,4997.54 4925.37,4994.04" />
    </edge>
    <edge id=":11346175798_7" function="internal">
        <lane id=":11346175798_7_0" index="0" disallow="tram rail_urban rail rail_electric rail_fast ship container cable_car subway aircraft wheelchair scooter drone" speed="7.38" length="18.30" shape="4918.48,5006.29 4922.78,5002.51 4926.14,5001.84 4928.56,5004.26 4930.05,5009.79" />
    </edge>
    <edge id=":11346175798_8" function="internal">
        <lane id=":11346175798_8_0" index="0" disallow="tram rail_urban rail rail_electric rail_fast ship container cable_car subway aircraft wheelchair scooter drone" speed="3.65" length="4.67" shape="4918.48,5006.29 4919.88,5005.93 4920.74,5006.16 4921.07,5007.00 4920.87,5008.42" />
    </edge>
    <edge id=":11346175804_0" function="internal">
        <lane id=":11346175804_0_0" index="0" disallow="tram rail_urban rail rail_electric rail_fast ship container cable_car subway aircraft wheelchair scooter drone" speed="6.47" length="9.03" shape="4164.11,4118.63 4162.84,4116.50 4161.20,4115.30 4159.18,4115.04 4156.79,4115.70" />
    </edge>
    <edge id=":11346175804_1" function="internal">
        <lane id=":11346175804_1_0" index="0" disallow="tram rail_urban rail rail_electric rail_fast ship container cable_car subway aircraft wheelchair scooter drone" speed="13.89" length="14.40" shape="4164.11,4118.63 4158.56,4105.34" />
    </edge>
    <edge id=":11346175804_2" function="internal">
        <lane id=":11346175804_2_0" index="0" disallow="tram rail_urban rail rail_electric rail_fast ship container cable_car subway aircraft wheelchair scooter drone" speed="3.65" length="1.44" shape="4164.11,4118.63 4164.39,4117.22" />
    </edge>
    <edge id=":11346175804_9" function="internal">
        <lane id=":11346175804_9_0" index="0" disallow="tram rail_urban rail rail_electric rail_fast ship container cable_car subway aircraft wheelchair scooter drone" speed="3.65" length="3.23" shape="4164.39,4117.22 4164.97,4116.54 4165.86,4116.60 4167.06,4117.40" />
    </edge>
    <edge id=":11346175804_3" function="internal">
        <lane id=":11346175804_3_0" index="0" disallow="tram rail_urban rail rail_electric rail_fast ship container cable_car subway aircraft wheelchair scooter drone" speed="13.89" length="14.40" shape="4161.52,4104.11 4167.06,4117.40" />
    </edge>
    <edge id=":11346175804_4" function="internal">
        <lane id=":11346175804_4_0" index="0" disallow="tram rail_urban rail rail_electric rail_fast ship container cable_car subway aircraft wheelchair scooter drone" speed="8.06" length="4.03" shape="4161.52,4104.11 4162.48,4107.85 4162.45,4108.02" />
    </edge>
    <edge id=":11346175804_5" function="internal">
        <lane id=":11346175804_5_0" index="0" disallow="tram rail_urban rail rail_electric rail_fast ship container cable_car subway aircraft wheelchair scooter drone" speed="3.65" length="1.44" shape="4161.52,4104.11 4161.24,4105.53" />
    </edge>
    <edge id=":11346175804_10" function="internal">
        <lane id=":11346175804_10_0" index="0" disallow="tram rail_urban rail rail_electric rail_fast ship container cable_car subway aircraft wheelchair scooter drone" speed="8.06" length="10.18" shape="4162.45,4108.02 4162.01,4111.03 4160.12,4113.64 4156.79,4115.70" />
    </edge>
    <edge id=":11346175804_11" function="internal">
        <lane id=":11346175804_11_0" index="0" disallow="tram rail_urban rail rail_electric rail_fast ship container cable_car subway aircraft wheelchair scooter drone" speed="3.65" length="3.23" shape="4161.24,4105.53 4160.66,4106.20 4159.77,4106.14 4158.56,4105.34" />
    </edge>
    <edge id=":11346175804_6" function="internal">
        <lane id=":11346175804_6_0" index="0" disallow="tram rail_urban rail rail_electric rail_fast ship container cable_car subway aircraft wheelchair scooter drone" speed="6.58" length="9.13" shape="4155.50,4112.77 4157.65,4111.45 4158.87,4109.77 4159.18,4107.73 4158.56,4105.34" />
    </edge>
    <edge id=":11346175804_7" function="internal">
        <lane id=":11346175804_7_0" index="0" disallow="tram rail_urban rail rail_electric rail_fast ship container cable_car subway aircraft wheelchair scooter drone" speed="7.97" length="14.26" shape="4155.50,4112.77 4159.28,4111.72 4162.46,4112.14 4165.06,4114.03 4167.06,4117.40" />
    </edge>
    <edge id=":11346175804_8" function="internal">
        <lane id=":11346175804_8_0" index="0" disallow="tram rail_urban rail rail_electric rail_fast ship container cable_car subway aircraft wheelchair scooter drone" speed="3.65" length="4.67" shape="4155.50,4112.77 4156.92,4113.02 4157.61,4113.59 4157.57,4114.49 4156.79,4115.70" />
    </edge>
    <edge id=":11346175807_0" function="internal">
        <lane id=":11346175807_0_0" index="0" disallow="tram rail_urban rail rail_electric rail_fast ship container cable_car subway aircraft wheelchair scooter drone" speed="13.89" length="14.20" shape="4439.00,5082.46 4433.66,5069.31" />
    </edge>
    <edge id=":11346175807_1" function="internal">
        <lane id=":11346175807_1_0" index="0" disallow="tram rail_urban rail rail_electric rail_fast ship container cable_car subway aircraft wheelchair scooter drone" speed="8.12" length="3.82" shape="4439.00,5082.46 4438.16,5078.73" />
    </edge>
    <edge id=":11346175807_2" function="internal">
        <lane id=":11346175807_2_0" index="0" disallow="tram rail_urban rail rail_electric rail_fast ship container cable_car subway aircraft wheelchair scooter drone" speed="3.65" length="1.44" shape="4439.00,5082.46 4439.32,5081.05" />
    </edge>
    <edge id=":11346175807_9" function="internal">
        <lane id=":11346175807_9_0" index="0" disallow="tram rail_urban rail rail_electric rail_fast ship container cable_car subway aircraft wheelchair scooter drone" speed="8.12" length="10.33" shape="4438.16,5078.73 4438.71,5075.57 4440.64,5072.98 4443.95,5070.95" />
    </edge>
    <edge id=":11346175807_10" function="internal">
        <lane id=":11346175807_10_0" index="0" disallow="tram rail_urban rail rail_electric rail_fast ship container cable_car subway aircraft wheelchair scooter drone" speed="3.65" length="3.23" shape="4439.32,5081.05 4439.93,5080.39 4440.82,5080.48 4441.99,5081.32" />
    </edge>
    <edge id=":11346175807_3" function="internal">
        <lane id=":11346175807_3_0" index="0" disallow="tram rail_urban rail rail_electric rail_fast ship container cable_car subway aircraft wheelchair scooter drone" speed="6.65" length="9.16" shape="4445.23,5073.88 4443.08,5075.20 4441.82,5076.88 4441.46,5078.92 4441.99,5081.32" />
    </edge>
    <edge id=":11346175807_4" function="internal">
        <lane id=":11346175807_4_0" index="0" disallow="tram rail_urban rail rail_electric rail_fast ship container cable_car subway aircraft wheelchair scooter drone" speed="7.99" length="14.21" shape="4445.23,5073.88 4441.48,5074.92 4438.30,5074.50 4435.69,5072.63 4433.66,5069.31" />
    </edge>
    <edge id=":11346175807_5" function="internal">
        <lane id=":11346175807_5_0" index="0" disallow="tram rail_urban rail rail_electric rail_fast ship container cable_car subway aircraft wheelchair scooter drone" speed="3.65" length="4.67" shape="4445.23,5073.88 4443.81,5073.63 4443.13,5073.06 4443.17,5072.16 4443.95,5070.95" />
    </edge>
    <edge id=":11346175807_6" function="internal">
        <lane id=":11346175807_6_0" index="0" disallow="tram rail_urban rail rail_electric rail_fast ship container cable_car subway aircraft wheelchair scooter drone" speed="6.50" length="9.03" shape="4436.59,5068.04 4437.89,5070.15 4439.54,5071.34 4441.57,5071.61 4443.95,5070.95" />
    </edge>
    <edge id=":11346175807_7" function="internal">
        <lane id=":11346175807_7_0" index="0" disallow="tram rail_urban rail rail_electric rail_fast ship container cable_car subway aircraft wheelchair scooter drone" speed="13.89" length="14.33" shape="4436.59,5068.04 4441.99,5081.32" />
    </edge>
    <edge id=":11346175807_8" function="internal">
        <lane id=":11346175807_8_0" index="0" disallow="tram rail_urban rail rail_electric rail_fast ship container cable_car subway aircraft wheelchair scooter drone" speed="3.65" length="1.44" shape="4436.59,5068.04 4436.34,5069.46" />
    </edge>
    <edge id=":11346175807_11" function="internal">
        <lane id=":11346175807_11_0" index="0" disallow="tram rail_urban rail rail_electric rail_fast ship container cable_car subway aircraft wheelchair scooter drone" speed="3.65" length="3.23" shape="4436.34,5069.46 4435.76,5070.14 4434.87,5070.09 4433.66,5069.31" />
    </edge>
    <edge id=":11346175808_0" function="internal">
        <lane id=":11346175808_0_0" index="0" disallow="tram rail_urban rail rail_electric rail_fast ship container cable_car subway aircraft wheelchair scooter drone" speed="6.49" length="9.03" shape="4556.33,5031.59 4555.05,5029.47 4553.40,5028.27 4551.38,5028.01 4548.99,5028.66" />
    </edge>
    <edge id=":11346175808_1" function="internal">
        <lane id=":11346175808_1_0" index="0" disallow="tram rail_urban rail rail_electric rail_fast ship container cable_car subway aircraft wheelchair scooter drone" speed="13.89" length="14.40" shape="4556.33,5031.59 4550.69,5018.34" />
    </edge>
    <edge id=":11346175808_2" function="internal">
        <lane id=":11346175808_2_0" index="0" disallow="tram rail_urban rail rail_electric rail_fast ship container cable_car subway aircraft wheelchair scooter drone" speed="3.65" length="1.44" shape="4556.33,5031.59 4556.60,5030.17" />
    </edge>
    <edge id=":11346175808_9" function="internal">
        <lane id=":11346175808_9_0" index="0" disallow="tram rail_urban rail rail_electric rail_fast ship container cable_car subway aircraft wheelchair scooter drone" speed="3.65" length="3.23" shape="4556.60,5030.17 4557.18,5029.49 4558.07,5029.54 4559.28,5030.33" />
    </edge>
    <edge id=":11346175808_3" function="internal">
        <lane id=":11346175808_3_0" index="0" disallow="tram rail_urban rail rail_electric rail_fast ship container cable_car subway aircraft wheelchair scooter drone" speed="13.89" length="14.40" shape="4553.64,5017.08 4559.28,5030.33" />
    </edge>
    <edge id=":11346175808_4" function="internal">
        <lane id=":11346175808_4_0" index="0" disallow="tram rail_urban rail rail_electric rail_fast ship container cable_car subway aircraft wheelchair scooter drone" speed="8.03" length="4.05" shape="4553.64,5017.08 4554.63,5020.83 4554.61,5021.00" />
    </edge>
    <edge id=":11346175808_5" function="internal">
        <lane id=":11346175808_5_0" index="0" disallow="tram rail_urban rail rail_electric rail_fast ship container cable_car subway aircraft wheelchair scooter drone" speed="3.65" length="1.44" shape="4553.64,5017.08 4553.37,5018.50" />
    </edge>
    <edge id=":11346175808_10" function="internal">
        <lane id=":11346175808_10_0" index="0" disallow="tram rail_urban rail rail_electric rail_fast ship container cable_car subway aircraft wheelchair scooter drone" speed="8.03" length="10.15" shape="4554.61,5021.00 4554.19,5024.01 4552.31,5026.62 4548.99,5028.66" />
    </edge>
    <edge id=":11346175808_11" function="internal">
        <lane id=":11346175808_11_0" index="0" disallow="tram rail_urban rail rail_electric rail_fast ship container cable_car subway aircraft wheelchair scooter drone" speed="3.65" length="3.23" shape="4553.37,5018.50 4552.79,5019.18 4551.90,5019.13 4550.69,5018.34" />
    </edge>
    <edge id=":11346175808_6" function="internal">
        <lane id=":11346175808_6_0" index="0" disallow="tram rail_urban rail rail_electric rail_fast ship container cable_car subway aircraft wheelchair scooter drone" speed="6.54" length="9.08" shape="4547.71,5025.73 4549.83,5024.42 4551.04,5022.76 4551.33,5020.73 4550.69,5018.34" />
    </edge>
    <edge id=":11346175808_7" function="internal">
        <lane id=":11346175808_7_0" index="0" disallow="tram rail_urban rail rail_electric rail_fast ship container cable_car subway aircraft wheelchair scooter drone" speed="7.99" length="14.23" shape="4547.71,5025.73 4551.47,5024.69 4554.65,5025.12 4557.25,5027.00 4559.28,5030.33" />
    </edge>
    <edge id=":11346175808_8" function="internal">
        <lane id=":11346175808_8_0" index="0" disallow="tram rail_urban rail rail_electric rail_fast ship container cable_car subway aircraft wheelchair scooter drone" speed="3.65" length="4.67" shape="4547.71,5025.73 4549.13,5025.99 4549.81,5026.56 4549.77,5027.45 4548.99,5028.66" />
    </edge>
    <edge id=":11346175811_0" function="internal">
        <lane id=":11346175811_0_0" index="0" disallow="tram rail_urban rail rail_electric rail_fast ship container cable_car subway aircraft wheelchair scooter drone" speed="6.59" length="9.14" shape="4557.77,4687.76 4556.47,4685.60 4554.80,4684.35 4552.77,4684.01 4550.37,4684.59" />
    </edge>
    <edge id=":11346175811_1" function="internal">
        <lane id=":11346175811_1_0" index="0" disallow="tram rail_urban rail rail_electric rail_fast ship container cable_car subway aircraft wheelchair scooter drone" speed="7.96" length="14.27" shape="4557.77,4687.76 4556.76,4683.97 4557.22,4680.79 4559.15,4678.22 4562.55,4676.26" />
    </edge>
    <edge id=":11346175811_2" function="internal">
        <lane id=":11346175811_2_0" index="0" disallow="tram rail_urban rail rail_electric rail_fast ship container cable_car subway aircraft wheelchair scooter drone" speed="3.65" length="4.67" shape="4557.77,4687.76 4558.03,4686.35 4558.61,4685.67 4559.51,4685.72 4560.71,4686.51" />
    </edge>
    <edge id=":11346175811_3" function="internal">
        <lane id=":11346175811_3_0" index="0" disallow="tram rail_urban rail rail_electric rail_fast ship container cable_car subway aircraft wheelchair scooter drone" speed="6.46" length="9.03" shape="4563.74,4679.23 4561.59,4680.48 4560.37,4682.10 4560.08,4684.12 4560.71,4686.51" />
    </edge>
    <edge id=":11346175811_4" function="internal">
        <lane id=":11346175811_4_0" index="0" disallow="tram rail_urban rail rail_electric rail_fast ship container cable_car subway aircraft wheelchair scooter drone" speed="13.89" length="14.40" shape="4563.74,4679.23 4550.37,4684.59" />
    </edge>
    <edge id=":11346175811_5" function="internal">
        <lane id=":11346175811_5_0" index="0" disallow="tram rail_urban rail rail_electric rail_fast ship container cable_car subway aircraft wheelchair scooter drone" speed="3.65" length="1.44" shape="4563.74,4679.23 4562.33,4678.94" />
    </edge>
    <edge id=":11346175811_9" function="internal">
        <lane id=":11346175811_9_0" index="0" disallow="tram rail_urban rail rail_electric rail_fast ship container cable_car subway aircraft wheelchair scooter drone" speed="3.65" length="3.23" shape="4562.33,4678.94 4561.66,4678.34 4561.73,4677.45 4562.55,4676.26" />
    </edge>
    <edge id=":11346175811_6" function="internal">
        <lane id=":11346175811_6_0" index="0" disallow="tram rail_urban rail rail_electric rail_fast ship container cable_car subway aircraft wheelchair scooter drone" speed="13.89" length="14.40" shape="4549.18,4681.62 4562.55,4676.26" />
    </edge>
    <edge id=":11346175811_7" function="internal">
        <lane id=":11346175811_7_0" index="0" disallow="tram rail_urban rail rail_electric rail_fast ship container cable_car subway aircraft wheelchair scooter drone" speed="8.07" length="4.03" shape="4549.18,4681.62 4552.93,4680.71 4553.10,4680.74" />
    </edge>
    <edge id=":11346175811_8" function="internal">
        <lane id=":11346175811_8_0" index="0" disallow="tram rail_urban rail rail_electric rail_fast ship container cable_car subway aircraft wheelchair scooter drone" speed="3.65" length="1.44" shape="4549.18,4681.62 4550.59,4681.92" />
    </edge>
    <edge id=":11346175811_10" function="internal">
        <lane id=":11346175811_10_0" index="0" disallow="tram rail_urban rail rail_electric rail_fast ship container cable_car subway aircraft wheelchair scooter drone" speed="8.07" length="10.19" shape="4553.10,4680.74 4556.10,4681.22 4558.70,4683.16 4560.71,4686.51" />
    </edge>
    <edge id=":11346175811_11" function="internal">
        <lane id=":11346175811_11_0" index="0" disallow="tram rail_urban rail rail_electric rail_fast ship container cable_car subway aircraft wheelchair scooter drone" speed="3.65" length="3.23" shape="4550.59,4681.92 4551.26,4682.51 4551.19,4683.40 4550.37,4684.59" />
    </edge>
    <edge id=":11346175812_0" function="internal">
        <lane id=":11346175812_0_0" index="0" disallow="tram rail_urban rail rail_electric rail_fast ship container cable_car subway aircraft wheelchair scooter drone" speed="13.89" length="14.40" shape="4739.22,5092.66 4726.03,5098.43" />
    </edge>
    <edge id=":11346175812_1" function="internal">
        <lane id=":11346175812_1_0" index="0" disallow="tram rail_urban rail rail_electric rail_fast ship container cable_car subway aircraft wheelchair scooter drone" speed="7.98" length="4.07" shape="4739.22,5092.66 4735.46,5093.70 4735.29,5093.68" />
    </edge>
    <edge id=":11346175812_2" function="internal">
        <lane id=":11346175812_2_0" index="0" disallow="tram rail_urban rail rail_electric rail_fast ship container cable_car subway aircraft wheelchair scooter drone" speed="3.65" length="1.44" shape="4739.22,5092.66 4737.80,5092.41" />
    </edge>
    <edge id=":11346175812_9" function="internal">