<net xmlns:xsi="http://www.w3.org/2001/XMLSchema-instance" version="1.20" junctionCornerDetail="5" limitTurnSpeed="5.50" xsi:noNamespaceSchemaLocation="http://sumo.dlr.de/xsd/net_file.xsd">

    <location netOffset="-357938.92,-145017.11" convBoundary="0.00,0.00,3317.05,2858.74" origBoundary="103.680909,1.288762,103.832195,1.366318" projParameter="+proj=utm +zone=48 +ellps=WGS84 +datum=WGS84 +units=m +no_defs" />

    <type id="highway.motorway" priority="14" numLanes="2" speed="39.44" allow="private emergency authority army vip passenger hov taxi bus coach delivery truck trailer motorcycle evehicle custom1 custom2" oneway="1" />
    <type id="highway.motorway_link" priority="9" numLanes="1" speed="22.22" allow="private emergency authority army vip passenger hov taxi bus coach delivery truck trailer motorcycle evehicle custom1 custom2" oneway="1" />
    <type id="highway.primary" priority="12" numLanes="2" speed="27.78" disallow="tram rail_urban rail rail_electric rail_fast ship container cable_car subway aircraft wheelchair scooter drone" oneway="0" />
    <type id="highway.primary_link" priority="7" numLanes="1" speed="22.22" disallow="tram rail_urban rail rail_electric rail_fast ship container cable_car subway aircraft wheelchair scooter drone" oneway="0" />
    <type id="highway.residential" priority="3" numLanes="1" speed="13.89" disallow="tram rail_urban rail rail_electric rail_fast ship container cable_car subway aircraft wheelchair scooter drone" oneway="0" />
    <type id="highway.secondary" priority="11" numLanes="1" speed="27.78" disallow="tram rail_urban rail rail_electric rail_fast ship container cable_car subway aircraft wheelchair scooter drone" oneway="0" />
    <type id="highway.secondary_link" priority="6" numLanes="1" speed="22.22" disallow="tram rail_urban rail rail_electric rail_fast ship container cable_car subway aircraft wheelchair scooter drone" oneway="0" />
    <type id="highway.tertiary" priority="10" numLanes="1" speed="22.22" disallow="tram rail_urban rail rail_electric rail_fast ship container cable_car subway aircraft wheelchair scooter drone" oneway="0" />
    <type id="highway.tertiary_link" priority="5" numLanes="1" speed="22.22" disallow="tram rail_urban rail rail_electric rail_fast ship container cable_car subway aircraft wheelchair scooter drone" oneway="0" />
    <type id="highway.trunk" priority="13" numLanes="2" speed="27.78" disallow="pedestrian bicycle tram rail_urban rail rail_electric rail_fast ship container cable_car subway aircraft wheelchair scooter drone" oneway="0" />
    <type id="highway.trunk_link" priority="8" numLanes="1" speed="22.22" disallow="pedestrian bicycle tram rail_urban rail rail_electric rail_fast ship container cable_car subway aircraft wheelchair scooter drone" oneway="0" />
    <type id="highway.unclassified" priority="4" numLanes="1" speed="13.89" disallow="tram rail_urban rail rail_electric rail_fast ship container cable_car subway aircraft wheelchair scooter drone" oneway="0" />

    <edge id=":10094593160_0" function="internal">
        <lane id=":10094593160_0_0" index="0" disallow="tram rail_urban rail rail_electric rail_fast ship container cable_car subway aircraft wheelchair scooter drone" speed="5.98" length="3.40" shape="2462.93,1052.64 2459.73,1051.50" />
    </edge>
    <edge id=":10094593160_1" function="internal">
        <lane id=":10094593160_1_0" index="0" disallow="tram rail_urban rail rail_electric rail_fast ship container cable_car subway aircraft wheelchair scooter drone" speed="3.65" length="1.44" shape="2462.93,1052.64 2461.94,1051.59" />
    </edge>
    <edge id=":10094593160_4" function="internal">
        <lane id=":10094593160_4_0" index="0" disallow="tram rail_urban rail rail_electric rail_fast ship container cable_car subway aircraft wheelchair scooter drone" speed="5.98" length="9.13" shape="2459.73,1051.50 2459.32,1051.35 2458.17,1049.73 2459.46,1047.79 2463.21,1045.53" />
    </edge>
    <edge id=":10094593160_5" function="internal">
        <lane id=":10094593160_5_0" index="0" disallow="tram rail_urban rail rail_electric rail_fast ship container cable_car subway aircraft wheelchair scooter drone" speed="3.65" length="3.23" shape="2461.94,1051.59 2461.74,1050.72 2462.31,1050.03 2463.66,1049.53" />
    </edge>
    <edge id=":10094593160_2" function="internal">
        <lane id=":10094593160_2_0" index="0" disallow="tram rail_urban rail rail_electric rail_fast ship container cable_car subway aircraft wheelchair scooter drone" speed="13.89" length="14.12" shape="2450.00,1050.42 2453.50,1049.54 2456.75,1048.42 2459.94,1047.08 2463.21,1045.53" />
    </edge>
    <edge id=":10094593160_3" function="internal">
        <lane id=":10094593160_3_0" index="0" disallow="tram rail_urban rail rail_electric rail_fast ship container cable_car subway aircraft wheelchair scooter drone" speed="18.05" length="13.81" shape="2450.00,1050.42 2453.51,1049.69 2456.84,1049.17 2460.16,1049.04 2463.66,1049.53" />
    </edge>
    <edge id=":10248044069_0" function="internal">
        <lane id=":10248044069_0_0" index="0" disallow="tram rail_urban rail rail_electric rail_fast ship container cable_car subway aircraft wheelchair scooter drone" speed="3.65" length="4.67" shape="3027.47,1028.07 3028.78,1028.67 3029.30,1029.40 3029.03,1030.25 3027.96,1031.23" />
    </edge>
    <edge id=":10852812131_0" function="internal">
        <lane id=":10852812131_0_0" index="0" disallow="tram rail_urban rail rail_electric rail_fast ship container cable_car subway aircraft wheelchair scooter drone" speed="13.89" length="0.30" shape="1723.78,1115.46 1723.85,1115.75" />
        <lane id=":10852812131_0_1" index="1" disallow="tram rail_urban rail rail_electric rail_fast ship container cable_car subway aircraft wheelchair scooter drone" speed="13.89" length="0.30" shape="1720.67,1116.21 1720.74,1116.50" />
    </edge>
    <edge id=":10852812132_0" function="internal">
        <lane id=":10852812132_0_0" index="0" disallow="tram rail_urban rail rail_electric rail_fast ship container cable_car subway aircraft wheelchair scooter drone" speed="13.89" length="0.30" shape="1733.91,1124.93 1733.80,1124.66" />
    </edge>
    <edge id=":10852944886_0" function="internal">
        <lane id=":10852944886_0_0" index="0" disallow="tram rail_urban rail rail_electric rail_fast ship container cable_car subway aircraft wheelchair scooter drone" speed="19.44" length="0.30" shape="2564.62,742.01 2564.34,742.08" />
        <lane id=":10852944886_0_1" index="1" disallow="tram rail_urban rail rail_electric rail_fast ship container cable_car subway aircraft wheelchair scooter drone" speed="19.44" length="0.30" shape="2563.89,738.89 2563.59,738.96" />
    </edge>
    <edge id=":11304074448_0" function="internal">
        <lane id=":11304074448_0_0" index="0" disallow="tram rail_urban rail rail_electric rail_fast ship container cable_car subway aircraft wheelchair scooter drone" speed="13.89" length="5.99" shape="2129.99,2212.93 2124.52,2214.68" />
        <lane id=":11304074448_0_1" index="1" disallow="tram rail_urban rail rail_electric rail_fast ship container cable_car subway aircraft wheelchair scooter drone" speed="13.89" length="5.99" shape="2129.07,2209.86 2123.37,2211.69" />
        <lane id=":11304074448_0_2" index="2" disallow="tram rail_urban rail rail_electric rail_fast ship container cable_car subway aircraft wheelchair scooter drone" speed="13.89" length="5.99" shape="2128.16,2206.80 2122.22,2208.71" />
    </edge>
    <edge id=":11304074448_3" function="internal">
        <lane id=":11304074448_3_0" index="0" disallow="tram rail_urban rail rail_electric rail_fast ship container cable_car subway aircraft wheelchair scooter drone" speed="5.56" length="6.08" shape="2128.16,2206.80 2127.44,2206.19 2126.78,2204.51 2126.23,2202.60 2125.87,2201.30" />
    </edge>
    <edge id=":11412162605_0" function="internal">
        <lane id=":11412162605_0_0" index="0" disallow="tram rail_urban rail rail_electric rail_fast ship container cable_car subway aircraft wheelchair scooter drone" speed="13.89" length="0.30" shape="2349.71,2027.88 2349.96,2027.72" />
        <lane id=":11412162605_0_1" index="1" disallow="tram rail_urban rail rail_electric rail_fast ship container cable_car subway aircraft wheelchair scooter drone" speed="13.89" length="0.30" shape="2351.43,2030.58 2351.68,2030.42" />
    </edge>
    <edge id=":11412162606_0" function="internal">
        <lane id=":11412162606_0_0" index="0" disallow="tram rail_urban rail rail_electric rail_fast ship container cable_car subway aircraft wheelchair scooter drone" speed="13.89" length="0.10" shape="2347.63,2023.89 2347.63,2023.89" />
        <lane id=":11412162606_0_1" index="1" disallow="tram rail_urban rail rail_electric rail_fast ship container cable_car subway aircraft wheelchair scooter drone" speed="13.89" length="0.10" shape="2345.92,2021.19 2345.92,2021.19" />
    </edge>
    <edge id=":1197843979_0" function="internal">
        <lane id=":1197843979_0_0" index="0" disallow="tram rail_urban rail rail_electric rail_fast ship container cable_car subway aircraft wheelchair scooter drone" speed="3.65" length="4.67" shape="1579.15,2830.35 1578.32,2831.52 1577.51,2831.90 1576.72,2831.48 1575.96,2830.26" />
    </edge>
    <edge id=":1197846193_0" function="internal">
        <lane id=":1197846193_0_0" index="0" disallow="tram rail_urban rail rail_electric rail_fast ship container cable_car subway aircraft wheelchair scooter drone" speed="19.44" length="7.90" shape="1331.97,2699.44 1332.84,2697.07 1332.76,2695.16 1332.73,2693.29 1333.76,2691.02" />
        <lane id=":1197846193_0_1" index="1" disallow="tram rail_urban rail rail_electric rail_fast ship container cable_car subway aircraft wheelchair scooter drone" speed="19.44" length="7.90" shape="1331.97,2699.44 1336.35,2692.91" />
        <lane id=":1197846193_0_2" index="2" disallow="tram rail_urban rail rail_electric rail_fast ship container cable_car subway aircraft wheelchair scooter drone" speed="19.44" length="7.90" shape="1334.69,2701.12 1338.93,2694.80" />
        <lane id=":1197846193_0_3" index="3" disallow="tram rail_urban rail rail_electric rail_fast ship container cable_car subway aircraft wheelchair scooter drone" speed="19.44" length="7.90" shape="1337.42,2702.79 1341.51,2696.69" />
    </edge>
    <edge id=":1197846194_0" function="internal">
        <lane id=":1197846194_0_0" index="0" disallow="tram rail_urban rail rail_electric rail_fast ship container cable_car subway aircraft wheelchair scooter drone" speed="19.44" length="8.13" shape="1855.14,2225.75 1856.89,2223.92 1857.54,2222.14 1858.19,2220.35 1859.95,2218.54" />
        <lane id=":1197846194_0_1" index="1" disallow="tram rail_urban rail rail_electric rail_fast ship container cable_car subway aircraft wheelchair scooter drone" speed="19.44" length="8.13" shape="1855.14,2225.75 1861.76,2221.18" />
        <lane id=":1197846194_0_2" index="2" disallow="tram rail_urban rail rail_electric rail_fast ship container cable_car subway aircraft wheelchair scooter drone" speed="19.44" length="8.13" shape="1856.97,2228.38 1863.56,2223.83" />
        <lane id=":1197846194_0_3" index="3" disallow="tram rail_urban rail rail_electric rail_fast ship container cable_car subway aircraft wheelchair scooter drone" speed="19.44" length="8.13" shape="1858.79,2231.00 1865.37,2226.47" />
        <lane id=":1197846194_0_4" index="4" disallow="tram rail_urban rail rail_electric rail_fast ship container cable_car subway aircraft wheelchair scooter drone" speed="19.44" length="8.13" shape="1860.62,2233.63 1867.18,2229.11" />
        <lane id=":1197846194_0_5" index="5" disallow="tram rail_urban rail rail_electric rail_fast ship container cable_car subway aircraft wheelchair scooter drone" speed="19.44" length="8.13" shape="1862.44,2236.26 1868.99,2231.75" />
    </edge>
    <edge id=":1197846204_0" function="internal">
        <lane id=":1197846204_0_0" index="0" disallow="tram rail_urban rail rail_electric rail_fast ship container cable_car subway aircraft wheelchair scooter drone" speed="19.44" length="8.60" shape="1554.21,2456.21 1555.66,2454.20 1556.02,2452.36 1556.37,2450.52 1557.79,2448.47" />
        <lane id=":1197846204_0_1" index="1" disallow="tram rail_urban rail rail_electric rail_fast ship container cable_car subway aircraft wheelchair scooter drone" speed="19.44" length="8.60" shape="1556.38,2458.57 1557.84,2456.54 1558.21,2454.70 1558.57,2452.84 1560.00,2450.78" />
        <lane id=":1197846204_0_2" index="2" disallow="tram rail_urban rail rail_electric rail_fast ship container cable_car subway aircraft wheelchair scooter drone" speed="19.44" length="8.60" shape="1558.54,2460.92 1560.02,2458.89 1560.40,2457.03 1560.77,2455.17 1562.21,2453.10" />
        <lane id=":1197846204_0_3" index="3" disallow="tram rail_urban rail rail_electric rail_fast ship container cable_car subway aircraft wheelchair scooter drone" speed="19.44" length="8.60" shape="1558.54,2460.92 1564.42,2455.41" />
    </edge>
    <edge id=":12005918204_0" function="internal">
        <lane id=":12005918204_0_0" index="0" allow="private emergency authority army vip passenger hov taxi bus coach delivery truck trailer motorcycle evehicle custom1 custom2" speed="16.67" length="0.10" shape="612.91,1558.37 612.91,1558.37" />
    </edge>
    <edge id=":12080164964_0" function="internal">
        <lane id=":12080164964_0_0" index="0" disallow="tram rail_urban rail rail_electric rail_fast ship container cable_car subway aircraft wheelchair scooter drone" speed="5.71" length="8.39" shape="2215.62,2115.37 2218.20,2113.47 2219.66,2111.79 2219.97,2110.34 2219.16,2109.11" />
    </edge>
    <edge id=":12080164964_1" function="internal">
        <lane id=":12080164964_1_0" index="0" disallow="tram rail_urban rail rail_electric rail_fast ship container cable_car subway aircraft wheelchair scooter drone" speed="13.89" length="8.73" shape="2215.62,2115.37 2222.97,2110.67" />
    </edge>
    <edge id=":12080164968_0" function="internal">
        <lane id=":12080164968_0_0" index="0" disallow="tram rail_urban rail rail_electric rail_fast ship container cable_car subway aircraft wheelchair scooter drone" speed="6.80" length="7.47" shape="2219.00,2108.98 2217.39,2108.03 2215.70,2107.70 2213.92,2107.99 2212.05,2108.89" />
    </edge>
    <edge id=":12080164968_1" function="internal">
        <lane id=":12080164968_1_0" index="0" disallow="tram rail_urban rail rail_electric rail_fast ship container cable_car subway aircraft wheelchair scooter drone" speed="13.89" length="8.23" shape="2218.97,2104.44 2212.05,2108.89" />
    </edge>
    <edge id=":1215426243_0" function="internal">
        <lane id=":1215426243_0_0" index="0" disallow="tram rail_urban rail rail_electric rail_fast ship container cable_car subway aircraft wheelchair scooter drone" speed="13.89" length="9.52" shape="2661.39,1840.38 2659.12,1841.83 2657.55,1842.84 2656.14,1844.02 2654.32,1845.99" />
        <lane id=":1215426243_0_1" index="1" disallow="tram rail_urban rail rail_electric rail_fast ship container cable_car subway aircraft wheelchair scooter drone" speed="13.89" length="9.52" shape="2659.62,1837.72 2657.13,1839.32 2655.42,1840.43 2653.88,1841.74 2651.90,1843.90" />
    </edge>
    <edge id=":1215426243_2" function="internal">
        <lane id=":1215426243_2_0" index="0" disallow="tram rail_urban rail rail_electric rail_fast ship container cable_car subway aircraft wheelchair scooter drone" speed="10.06" length="1.79" shape="2655.68,1835.96 2655.85,1837.75" />
        <lane id=":1215426243_2_1" index="1" disallow="tram rail_urban rail rail_electric rail_fast ship container cable_car subway aircraft wheelchair scooter drone" speed="8.72" length="3.50" shape="2652.52,1836.42 2652.79,1839.06 2652.78,1839.90" />
    </edge>
    <edge id=":1215426243_4" function="internal">
        <lane id=":1215426243_4_0" index="0" disallow="tram rail_urban rail rail_electric rail_fast ship container cable_car subway aircraft wheelchair scooter drone" speed="10.06" length="8.59" shape="2655.85,1837.75 2655.99,1839.30 2655.86,1842.09 2655.31,1844.32 2654.32,1845.99" />
        <lane id=":1215426243_4_1" index="0" disallow="tram rail_urban rail rail_electric rail_fast ship container cable_car subway aircraft wheelchair scooter drone" speed="8.72" length="4.17" shape="2652.78,1839.90 2652.78,1841.19 2652.48,1842.80 2651.90,1843.90" />
    </edge>
    <edge id=":1215426245_0" function="internal">
        <lane id=":1215426245_0_0" index="0" disallow="tram rail_urban rail rail_electric rail_fast ship container cable_car subway aircraft wheelchair scooter drone" speed="13.89" length="17.26" shape="2699.01,1917.05 2703.75,1915.33 2706.99,1914.05 2709.96,1912.32 2713.88,1909.22" />
        <lane id=":1215426245_0_1" index="1" disallow="tram rail_urban rail rail_electric rail_fast ship container cable_car subway aircraft wheelchair scooter drone" speed="13.89" length="17.26" shape="2700.16,1920.04 2705.06,1918.26 2708.43,1916.96 2711.51,1915.18 2715.58,1911.98" />
    </edge>
    <edge id=":1215426245_2" function="internal">
        <lane id=":1215426245_2_0" index="0" disallow="tram rail_urban rail rail_electric rail_fast ship container cable_car subway aircraft wheelchair scooter drone" speed="9.27" length="12.80" shape="2700.16,1920.04 2705.20,1918.44 2709.26,1917.87 2712.31,1918.33 2714.38,1919.83" />
        <lane id=":1215426245_2_1" index="1" disallow="tram rail_urban rail rail_electric rail_fast ship container cable_car subway aircraft wheelchair scooter drone" speed="8.56" length="12.80" shape="2700.16,1920.04 2703.87,1919.01 2707.06,1918.95 2709.72,1919.88 2711.85,1921.79" />
        <lane id=":1215426245_2_2" index="2" disallow="tram rail_urban rail rail_electric rail_fast ship container cable_car subway aircraft wheelchair scooter drone" speed="7.88" length="12.80" shape="2700.16,1920.04 2702.55,1919.58 2704.87,1920.04 2707.13,1921.43 2709.32,1923.75" />
    </edge>
    <edge id=":1314876787_0" function="internal">
        <lane id=":1314876787_0_0" index="0" disallow="tram rail_urban rail rail_electric rail_fast ship container cable_car subway aircraft wheelchair scooter drone" speed="13.89" length="15.56" shape="2203.51,1280.86 2198.95,1280.54 2195.77,1281.09 2192.59,1281.63 2188.04,1281.25" />
        <lane id=":1314876787_0_1" index="1" disallow="tram rail_urban rail rail_electric rail_fast ship container cable_car subway aircraft wheelchair scooter drone" speed="13.89" length="15.56" shape="2204.09,1277.71 2199.55,1277.39 2196.37,1277.95 2193.20,1278.49 2188.67,1278.11" />
    </edge>
    <edge id=":1314876787_2" function="internal">
        <lane id=":1314876787_2_0" index="0" disallow="tram rail_urban rail rail_electric rail_fast ship container cable_car subway aircraft wheelchair scooter drone" speed="13.89" length="17.94" shape="2189.92,1271.84 2194.60,1273.73 2196.79,1276.73 2198.38,1280.71 2201.25,1285.55" />
        <lane id=":1314876787_2_1" index="1" disallow="tram rail_urban rail rail_electric rail_fast ship container cable_car subway aircraft wheelchair scooter drone" speed="13.89" length="17.94" shape="2189.29,1274.97 2193.50,1276.79 2195.32,1279.70 2196.58,1283.51 2199.13,1288.03" />
    </edge>
    <edge id=":1314882386_0" function="internal">
        <lane id=":1314882386_0_0" index="0" disallow="tram rail_urban rail rail_electric rail_fast ship container cable_car subway aircraft wheelchair scooter drone" speed="8.33" length="9.32" shape="2241.20,1295.29 2240.14,1292.35 2238.92,1290.14 2237.56,1288.67 2236.05,1287.94" />
        <lane id=":1314882386_0_1" index="1" disallow="tram rail_urban rail rail_electric rail_fast ship container cable_car subway aircraft wheelchair scooter drone" speed="9.63" length="12.67" shape="2244.27,1294.37 2242.85,1290.62 2241.14,1287.78 2239.11,1285.85 2236.78,1284.82" />
    </edge>
    <edge id=":1314882386_2" function="internal">
        <lane id=":1314882386_2_0" index="0" disallow="tram rail_urban rail rail_electric rail_fast ship container cable_car subway aircraft wheelchair scooter drone" speed="13.89" length="12.01" shape="2247.75,1290.65 2236.05,1287.94" />
        <lane id=":1314882386_2_1" index="1" disallow="tram rail_urban rail rail_electric rail_fast ship container cable_car subway aircraft wheelchair scooter drone" speed="13.89" length="12.01" shape="2248.48,1287.53 2236.78,1284.82" />
    </edge>
    <edge id=":1314882387_0" function="internal">
        <lane id=":1314882387_0_0" index="0" disallow="tram rail_urban rail rail_electric rail_fast ship container cable_car subway aircraft wheelchair scooter drone" speed="13.89" length="18.13" shape="1643.79,1585.98 1638.67,1588.84 1634.24,1590.21 1630.38,1591.08 1626.96,1592.41" />
    </edge>
    <edge id=":1314882387_1" function="internal">
        <lane id=":1314882387_1_0" index="0" disallow="tram rail_urban rail rail_electric rail_fast ship container cable_car subway aircraft wheelchair scooter drone" speed="10.62" length="2.14" shape="1641.94,1583.38 1640.13,1583.93 1639.88,1583.91" />
    </edge>
    <edge id=":1314882387_4" function="internal">
        <lane id=":1314882387_4_0" index="0" disallow="tram rail_urban rail rail_electric rail_fast ship container cable_car subway aircraft wheelchair scooter drone" speed="10.62" length="11.74" shape="1639.88,1583.91 1637.29,1583.76 1633.42,1582.87 1628.51,1581.27" />
    </edge>
    <edge id=":1314882387_2" function="internal">
        <lane id=":1314882387_2_0" index="0" disallow="tram rail_urban rail rail_electric rail_fast ship container cable_car subway aircraft wheelchair scooter drone" speed="13.89" length="17.20" shape="1625.36,1589.64 1628.91,1587.60 1632.81,1585.34 1636.67,1583.02 1640.08,1580.77" />
    </edge>
    <edge id=":1314882387_3" function="internal">
        <lane id=":1314882387_3_0" index="0" disallow="tram rail_urban rail rail_electric rail_fast ship container cable_car subway aircraft wheelchair scooter drone" speed="13.89" length="19.83" shape="1630.96,1598.14 1632.43,1593.81 1634.54,1588.74 1637.14,1584.03 1640.08,1580.77" />
    </edge>
    <edge id=":1314882394_0" function="internal">
        <lane id=":1314882394_0_0" index="0" allow="private emergency authority army vip passenger hov taxi bus coach delivery truck trailer motorcycle evehicle custom1 custom2" speed="13.89" length="16.15" shape="2327.16,1304.86 2312.31,1311.08" />
        <lane id=":1314882394_0_1" index="1" allow="private emergency authority army vip passenger hov taxi bus coach delivery truck trailer motorcycle evehicle custom1 custom2" speed="13.89" length="16.15" shape="2326.00,1301.88 2311.06,1308.13" />
    </edge>
    <edge id=":1314882394_2" function="internal">
        <lane id=":1314882394_2_0" index="0" disallow="tram rail_urban rail rail_electric rail_fast ship container cable_car subway aircraft wheelchair scooter drone" speed="13.89" length="15.97" shape="2326.00,1301.88 2321.59,1303.58 2318.43,1304.48 2315.18,1304.69 2310.50,1304.32" />
        <lane id=":1314882394_2_1" index="1" disallow="tram rail_urban rail rail_electric rail_fast ship container cable_car subway aircraft wheelchair scooter drone" speed="13.89" length="15.52" shape="2326.00,1301.88 2321.71,1303.04 2318.60,1302.84 2315.40,1301.98 2310.84,1301.14" />
    </edge>
    <edge id=":1346000317_0" function="internal">
        <lane id=":1346000317_0_0" index="0" allow="private emergency authority army vip passenger hov taxi bus coach delivery truck trailer motorcycle evehicle custom1 custom2" speed="25.00" length="7.92" shape="1738.39,1693.80 1740.33,1692.77 1741.45,1691.71 1742.55,1690.59 1744.42,1689.39" />
        <lane id=":1346000317_0_1" index="1" allow="private emergency authority army vip passenger hov taxi bus coach delivery truck trailer motorcycle evehicle custom1 custom2" speed="25.00" length="7.92" shape="1739.56,1696.78 1741.57,1695.72 1742.74,1694.64 1743.89,1693.49 1745.83,1692.26" />
        <lane id=":1346000317_0_2" index="2" allow="private emergency authority army vip passenger hov taxi bus coach delivery truck trailer motorcycle evehicle custom1 custom2" speed="25.00" length="7.92" shape="1740.72,1699.76 1742.81,1698.67 1744.04,1697.56 1745.24,1696.40 1747.25,1695.13" />
        <lane id=":1346000317_0_3" index="3" allow="private emergency authority army vip passenger hov taxi bus coach delivery truck trailer motorcycle evehicle custom1 custom2" speed="25.00" length="7.92" shape="1741.89,1702.74 1744.05,1701.62 1745.33,1700.49 1746.58,1699.30 1748.66,1698.00" />
    </edge>
    <edge id=":1346032489_0" function="internal">
        <lane id=":1346032489_0_0" index="0" disallow="tram rail_urban rail rail_electric rail_fast ship container cable_car subway aircraft wheelchair scooter drone" speed="19.44" length="8.55" shape="2512.02,1147.73 2512.73,1150.18 2513.95,1151.66 2515.14,1153.14 2515.76,1155.60" />
        <lane id=":1346032489_0_1" index="1" disallow="tram rail_urban rail rail_electric rail_fast ship container cable_car subway aircraft wheelchair scooter drone" speed="19.44" length="8.55" shape="2508.83,1148.00 2509.54,1150.42 2510.76,1151.88 2511.94,1153.34 2512.56,1155.76" />
        <lane id=":1346032489_0_2" index="2" disallow="tram rail_urban rail rail_electric rail_fast ship container cable_car subway aircraft wheelchair scooter drone" speed="19.44" length="8.55" shape="2505.64,1148.28 2506.35,1150.66 2507.56,1152.09 2508.75,1153.53 2509.36,1155.91" />
        <lane id=":1346032489_0_3" index="3" disallow="tram rail_urban rail rail_electric rail_fast ship container cable_car subway aircraft wheelchair scooter drone" speed="19.44" length="8.55" shape="2505.64,1148.28 2506.17,1156.07" />
        <lane id=":1346032489_0_4" index="4" disallow="tram rail_urban rail rail_electric rail_fast ship container cable_car subway aircraft wheelchair scooter drone" speed="19.44" length="8.55" shape="2505.64,1148.28 2505.35,1150.69 2504.37,1152.25 2503.35,1153.80 2502.97,1156.22" />
    </edge>
    <edge id=":1346032498_0" function="internal">
        <lane id=":1346032498_0_0" index="0" allow="private emergency authority army vip passenger hov taxi bus coach delivery truck trailer motorcycle evehicle custom1 custom2" speed="13.89" length="7.41" shape="2279.46,1369.94 2281.36,1368.81 2282.51,1367.73 2283.69,1366.74 2285.69,1365.86" />
        <lane id=":1346032498_0_1" index="1" allow="private emergency authority army vip passenger hov taxi bus coach delivery truck trailer motorcycle evehicle custom1 custom2" speed="13.89" length="7.41" shape="2279.46,1369.94 2281.49,1369.30 2282.99,1369.27 2284.52,1369.32 2286.64,1368.92" />
    </edge>
    <edge id=":1346032499_0" function="internal">
        <lane id=":1346032499_0_0" index="0" allow="private emergency authority army vip passenger hov taxi bus coach delivery truck trailer motorcycle evehicle custom1 custom2" speed="13.89" length="7.97" shape="2640.72,1228.76 2638.39,1229.34 2636.87,1230.08 2635.35,1230.77 2633.00,1231.19" />
        <lane id=":1346032499_0_1" index="1" allow="private emergency authority army vip passenger hov taxi bus coach delivery truck trailer motorcycle evehicle custom1 custom2" speed="13.89" length="7.97" shape="2640.28,1225.60 2638.01,1226.16 2636.54,1226.90 2635.05,1227.58 2632.77,1228.00" />
        <lane id=":1346032499_0_2" index="2" allow="private emergency authority army vip passenger hov taxi bus coach delivery truck trailer motorcycle evehicle custom1 custom2" speed="13.89" length="7.97" shape="2640.28,1225.60 2637.99,1225.66 2636.42,1225.30 2634.84,1224.89 2632.54,1224.81" />
    </edge>
    <edge id=":1346032504_0" function="internal">
        <lane id=":1346032504_0_0" index="0" disallow="tram rail_urban rail rail_electric rail_fast ship container cable_car subway aircraft wheelchair scooter drone" speed="19.44" length="8.60" shape="1739.50,2312.73 1737.81,2314.48 1737.22,2316.22 1736.65,2317.98 1735.01,2319.79" />
        <lane id=":1346032504_0_1" index="1" disallow="tram rail_urban rail rail_electric rail_fast ship container cable_car subway aircraft wheelchair scooter drone" speed="19.44" length="8.60" shape="1737.71,2310.08 1736.00,2311.84 1735.39,2313.60 1734.79,2315.37 1733.12,2317.21" />
        <lane id=":1346032504_0_2" index="2" disallow="tram rail_urban rail rail_electric rail_fast ship container cable_car subway aircraft wheelchair scooter drone" speed="19.44" length="8.60" shape="1735.92,2307.43 1734.18,2309.21 1733.55,2310.98 1732.93,2312.77 1731.24,2314.62" />
        <lane id=":1346032504_0_3" index="3" disallow="tram rail_urban rail rail_electric rail_fast ship container cable_car subway aircraft wheelchair scooter drone" speed="19.44" length="8.60" shape="1734.13,2304.78 1732.36,2306.58 1731.71,2308.36 1731.08,2310.16 1729.36,2312.03" />
        <lane id=":1346032504_0_4" index="4" disallow="tram rail_urban rail rail_electric rail_fast ship container cable_car subway aircraft wheelchair scooter drone" speed="19.44" length="8.60" shape="1734.13,2304.78 1727.47,2309.45" />
    </edge>
    <edge id=":1346032508_0" function="internal">
        <lane id=":1346032508_0_0" index="0" allow="private emergency authority army vip passenger hov taxi bus coach delivery truck trailer motorcycle evehicle custom1 custom2" speed="13.89" length="10.43" shape="2583.00,1234.83 2579.84,1234.96 2577.67,1234.86 2575.50,1234.69 2572.33,1234.58" />
        <lane id=":1346032508_0_1" index="1" allow="private emergency authority army vip passenger hov taxi bus coach delivery truck trailer motorcycle evehicle custom1 custom2" speed="13.89" length="10.43" shape="2582.77,1231.64 2579.68,1231.76 2577.56,1231.66 2575.44,1231.49 2572.35,1231.38" />