<net xmlns:xsi="http://www.w3.org/2001/XMLSchema-instance" version="1.20" junctionCornerDetail="5" limitTurnSpeed="5.50" xsi:noNamespaceSchemaLocation="http://sumo.dlr.de/xsd/net_file.xsd">

    <location netOffset="-362884.47,-141421.20" convBoundary="0.00,0.00,2257.63,2672.15" origBoundary="103.758677,1.265331,103.892309,1.353061" projParameter="+proj=utm +zone=48 +ellps=WGS84 +datum=WGS84 +units=m +no_defs" />

    <type id="highway.motorway" priority="14" numLanes="2" speed="39.44" allow="private emergency authority army vip passenger hov taxi bus coach delivery truck trailer motorcycle evehicle custom1 custom2" oneway="1" />
    <type id="highway.motorway_link" priority="9" numLanes="1" speed="22.22" allow="private emergency authority army vip passenger hov taxi bus coach delivery truck trailer motorcycle evehicle custom1 custom2" oneway="1" />
    <type id="highway.primary" priority="12" numLanes="2" speed="27.78" disallow="tram rail_urban rail rail_electric rail_fast ship container cable_car subway aircraft wheelchair scooter drone" oneway="0" />
    <type id="highway.primary_link" priority="7" numLanes="1" speed="22.22" disallow="tram rail_urban rail rail_electric rail_fast ship container cable_car subway aircraft wheelchair scooter drone" oneway="0" />
    <type id="highway.residential" priority="3" numLanes="1" speed="13.89" disallow="tram rail_urban rail rail_electric rail_fast ship container cable_car subway aircraft wheelchair scooter drone" oneway="0" />
    <type id="highway.secondary" priority="11" numLanes="1" speed="27.78" disallow="tram rail_urban rail rail_electric rail_fast ship container cable_car subway aircraft wheelchair scooter drone" oneway="0" />
    <type id="highway.secondary_link" priority="6" numLanes="1" speed="22.22" disallow="tram rail_urban rail rail_electric rail_fast ship container cable_car subway aircraft wheelchair scooter drone" oneway="0" />
    <type id="highway.tertiary" priority="10" numLanes="1" speed="22.22" disallow="tram rail_urban rail rail_electric rail_fast ship container cable_car subway aircraft wheelchair scooter drone" oneway="0" />
    <type id="highway.trunk" priority="13" numLanes="2" speed="27.78" disallow="pedestrian bicycle tram rail_urban rail rail_electric rail_fast ship container cable_car subway aircraft wheelchair scooter drone" oneway="0" />
    <type id="highway.trunk_link" priority="8" numLanes="1" speed="22.22" disallow="pedestrian bicycle tram rail_urban rail rail_electric rail_fast ship container cable_car subway aircraft wheelchair scooter drone" oneway="0" />

    <edge id=":10607211459_0" function="internal">
        <lane id=":10607211459_0_0" index="0" disallow="tram rail_urban rail rail_electric rail_fast ship container cable_car subway aircraft wheelchair scooter drone" speed="3.65" length="4.67" shape="265.85,1491.26 266.11,1492.68 265.82,1493.52 264.96,1493.79 263.55,1493.49" />
    </edge>
    <edge id=":10846694944_0" function="internal">
        <lane id=":10846694944_0_0" index="0" disallow="tram rail_urban rail rail_electric rail_fast ship container cable_car subway aircraft wheelchair scooter drone" speed="16.67" length="0.30" shape="372.38,2591.84 372.49,2592.14" />
        <lane id=":10846694944_0_1" index="1" disallow="tram rail_urban rail rail_electric rail_fast ship container cable_car subway aircraft wheelchair scooter drone" speed="16.67" length="0.30" shape="369.36,2592.91 369.47,2593.20" />
        <lane id=":10846694944_0_2" index="2" disallow="tram rail_urban rail rail_electric rail_fast ship container cable_car subway aircraft wheelchair scooter drone" speed="16.67" length="0.30" shape="366.35,2593.98 366.44,2594.26" />
        <lane id=":10846694944_0_3" index="3" disallow="tram rail_urban rail rail_electric rail_fast ship container cable_car subway aircraft wheelchair scooter drone" speed="16.67" length="0.30" shape="363.33,2595.04 363.42,2595.31" />
    </edge>
    <edge id=":10852944896_0" function="internal">
        <lane id=":10852944896_0_0" index="0" disallow="tram rail_urban rail rail_electric rail_fast ship container cable_car subway aircraft wheelchair scooter drone" speed="11.11" length="0.10" shape="1874.27,2359.34 1874.27,2359.34" />
        <lane id=":10852944896_0_1" index="1" disallow="tram rail_urban rail rail_electric rail_fast ship container cable_car subway aircraft wheelchair scooter drone" speed="11.11" length="0.10" shape="1876.74,2361.37 1876.74,2361.37" />
        <lane id=":10852944896_0_2" index="2" disallow="tram rail_urban rail rail_electric rail_fast ship container cable_car subway aircraft wheelchair scooter drone" speed="11.11" length="0.10" shape="1879.21,2363.40 1879.21,2363.40" />
    </edge>
    <edge id=":10852944897_0" function="internal">
        <lane id=":10852944897_0_0" index="0" disallow="tram rail_urban rail rail_electric rail_fast ship container cable_car subway aircraft wheelchair scooter drone" speed="11.11" length="0.30" shape="1890.35,2334.78 1890.14,2335.01" />
        <lane id=":10852944897_0_1" index="1" disallow="tram rail_urban rail rail_electric rail_fast ship container cable_car subway aircraft wheelchair scooter drone" speed="11.11" length="0.30" shape="1887.97,2332.64 1887.76,2332.87" />
        <lane id=":10852944897_0_2" index="2" disallow="tram rail_urban rail rail_electric rail_fast ship container cable_car subway aircraft wheelchair scooter drone" speed="11.11" length="0.30" shape="1885.58,2330.50 1885.39,2330.73" />
    </edge>
    <edge id=":11190454673_0" function="internal">
        <lane id=":11190454673_0_0" index="0" disallow="tram rail_urban rail rail_electric rail_fast ship container cable_car subway aircraft wheelchair scooter drone" speed="16.67" length="0.30" shape="188.47,1636.20 188.33,1635.94" />
        <lane id=":11190454673_0_1" index="1" disallow="tram rail_urban rail rail_electric rail_fast ship container cable_car subway aircraft wheelchair scooter drone" speed="16.67" length="0.30" shape="191.26,1634.63 191.11,1634.37" />
        <lane id=":11190454673_0_2" index="2" disallow="tram rail_urban rail rail_electric rail_fast ship container cable_car subway aircraft wheelchair scooter drone" speed="16.67" length="0.30" shape="194.04,1633.05 193.89,1632.79" />
    </edge>
    <edge id=":1199539758_0" function="internal">
        <lane id=":1199539758_0_0" index="0" disallow="tram rail_urban rail rail_electric rail_fast ship container cable_car subway aircraft wheelchair scooter drone" speed="3.65" length="4.67" shape="569.91,1398.58 571.28,1399.02 571.88,1399.69 571.72,1400.56 570.78,1401.66" />
    </edge>
    <edge id=":1199539763_0" function="internal">
        <lane id=":1199539763_0_0" index="0" disallow="tram rail_urban rail rail_electric rail_fast ship container cable_car subway aircraft wheelchair scooter drone" speed="3.65" length="4.67" shape="345.79,1406.84 344.40,1406.45 343.78,1405.81 343.91,1404.93 344.80,1403.79" />
    </edge>
    <edge id=":1199539784_0" function="internal">
        <lane id=":1199539784_0_0" index="0" disallow="tram rail_urban rail rail_electric rail_fast ship container cable_car subway aircraft wheelchair scooter drone" speed="13.89" length="14.46" shape="386.21,1393.61 372.48,1398.13" />
    </edge>
    <edge id=":1199539784_1" function="internal">
        <lane id=":1199539784_1_0" index="0" disallow="tram rail_urban rail rail_electric rail_fast ship container cable_car subway aircraft wheelchair scooter drone" speed="7.83" length="4.18" shape="386.21,1393.61 382.22,1394.32 382.10,1394.29" />
    </edge>
    <edge id=":1199539784_7" function="internal">
        <lane id=":1199539784_7_0" index="0" disallow="tram rail_urban rail rail_electric rail_fast ship container cable_car subway aircraft wheelchair scooter drone" speed="7.83" length="10.41" shape="382.10,1394.29 379.08,1393.54 376.78,1391.25 375.34,1387.46" />
    </edge>
    <edge id=":1199539784_2" function="internal">
        <lane id=":1199539784_2_0" index="0" disallow="tram rail_urban rail rail_electric rail_fast ship container cable_car subway aircraft wheelchair scooter drone" speed="6.30" length="9.04" shape="378.47,1386.76 379.36,1389.11 380.78,1390.53 382.73,1391.01 385.20,1390.57" />
    </edge>
    <edge id=":1199539784_3" function="internal">
        <lane id=":1199539784_3_0" index="0" disallow="tram rail_urban rail rail_electric rail_fast ship container cable_car subway aircraft wheelchair scooter drone" speed="8.34" length="14.36" shape="378.47,1386.76 378.83,1390.76 377.95,1393.99 375.83,1396.45 372.48,1398.13" />
    </edge>
    <edge id=":1199539784_4" function="internal">
        <lane id=":1199539784_4_0" index="0" disallow="tram rail_urban rail rail_electric rail_fast ship container cable_car subway aircraft wheelchair scooter drone" speed="6.90" length="9.55" shape="371.49,1395.09 373.67,1393.98 375.04,1392.33 375.60,1390.16 375.34,1387.46" />
    </edge>
    <edge id=":1199539784_5" function="internal">
        <lane id=":1199539784_5_0" index="0" disallow="tram rail_urban rail rail_electric rail_fast ship container cable_car subway aircraft wheelchair scooter drone" speed="13.89" length="14.44" shape="371.49,1395.09 385.20,1390.57" />
    </edge>
    <edge id=":1199539784_6" function="internal">
        <lane id=":1199539784_6_0" index="0" disallow="tram rail_urban rail rail_electric rail_fast ship container cable_car subway aircraft wheelchair scooter drone" speed="3.65" length="1.44" shape="371.49,1395.09 372.87,1395.48" />
    </edge>
    <edge id=":1199539784_8" function="internal">
        <lane id=":1199539784_8_0" index="0" disallow="tram rail_urban rail rail_electric rail_fast ship container cable_car subway aircraft wheelchair scooter drone" speed="3.65" length="3.23" shape="372.87,1395.48 373.50,1396.11 373.37,1397.00 372.48,1398.13" />
    </edge>
    <edge id=":1199539821_0" function="internal">
        <lane id=":1199539821_0_0" index="0" disallow="tram rail_urban rail rail_electric rail_fast ship container cable_car subway aircraft wheelchair scooter drone" speed="6.16" length="9.05" shape="500.32,1346.44 499.69,1343.97 498.42,1342.45 496.53,1341.86 494.01,1342.21" />
    </edge>
    <edge id=":1199539821_1" function="internal">
        <lane id=":1199539821_1_0" index="0" disallow="tram rail_urban rail rail_electric rail_fast ship container cable_car subway aircraft wheelchair scooter drone" speed="13.89" length="14.52" shape="500.32,1346.44 498.66,1332.02" />
    </edge>
    <edge id=":1199539821_2" function="internal">
        <lane id=":1199539821_2_0" index="0" disallow="tram rail_urban rail rail_electric rail_fast ship container cable_car subway aircraft wheelchair scooter drone" speed="13.89" length="14.56" shape="501.83,1331.63 503.50,1346.09" />
    </edge>
    <edge id=":1199539821_3" function="internal">
        <lane id=":1199539821_3_0" index="0" disallow="tram rail_urban rail rail_electric rail_fast ship container cable_car subway aircraft wheelchair scooter drone" speed="8.60" length="3.88" shape="501.83,1331.63 501.72,1335.30 501.63,1335.49" />
    </edge>
    <edge id=":1199539821_6" function="internal">
        <lane id=":1199539821_6_0" index="0" disallow="tram rail_urban rail rail_electric rail_fast ship container cable_car subway aircraft wheelchair scooter drone" speed="8.60" length="10.64" shape="501.63,1335.49 500.37,1338.29 497.80,1340.59 494.01,1342.21" />
    </edge>
    <edge id=":1199539821_4" function="internal">
        <lane id=":1199539821_4_0" index="0" disallow="tram rail_urban rail rail_electric rail_fast ship container cable_car subway aircraft wheelchair scooter drone" speed="7.21" length="9.95" shape="493.12,1339.14 495.79,1338.02 497.60,1336.46 498.56,1334.46 498.66,1332.02" />
    </edge>
    <edge id=":1199539821_5" function="internal">
        <lane id=":1199539821_5_0" index="0" disallow="tram rail_urban rail rail_electric rail_fast ship container cable_car subway aircraft wheelchair scooter drone" speed="7.72" length="14.90" shape="493.12,1339.14 497.27,1338.56 500.38,1339.52 502.46,1342.03 503.50,1346.09" />
    </edge>
    <edge id=":1201719386_0" function="internal">
        <lane id=":1201719386_0_0" index="0" disallow="tram rail_urban rail rail_electric rail_fast ship container cable_car subway aircraft wheelchair scooter drone" speed="3.65" length="4.67" shape="615.96,1430.17 615.40,1431.50 614.68,1432.04 613.82,1431.80 612.82,1430.77" />
    </edge>
    <edge id=":12213144280_0" function="internal">
        <lane id=":12213144280_0_0" index="0" disallow="tram rail_urban rail rail_electric rail_fast ship container cable_car subway aircraft wheelchair scooter drone" speed="6.61" length="18.28" shape="1761.02,1344.92 1754.87,1341.94 1752.13,1341.58 1752.78,1343.83 1756.83,1348.70" />
    </edge>
    <edge id=":12213144280_1" function="internal">
        <lane id=":12213144280_1_0" index="0" disallow="tram rail_urban rail rail_electric rail_fast ship container cable_car subway aircraft wheelchair scooter drone" speed="16.67" length="18.28" shape="1762.55,1342.11 1757.06,1339.65 1752.50,1338.20 1748.82,1336.85 1745.99,1334.70" />
    </edge>
    <edge id=":12213144280_2" function="internal">
        <lane id=":12213144280_2_0" index="0" disallow="tram rail_urban rail rail_electric rail_fast ship container cable_car subway aircraft wheelchair scooter drone" speed="16.67" length="18.28" shape="1748.43,1332.63 1750.14,1335.77 1751.04,1339.59 1751.99,1344.26 1753.89,1349.96" />
    </edge>
    <edge id=":12213144280_3" function="internal">
        <lane id=":12213144280_3_0" index="0" disallow="tram rail_urban rail rail_electric rail_fast ship container cable_car subway aircraft wheelchair scooter drone" speed="3.65" length="1.24" shape="1748.43,1332.63 1748.57,1333.86" />
    </edge>
    <edge id=":12213144280_4" function="internal">
        <lane id=":12213144280_4_0" index="0" disallow="tram rail_urban rail rail_electric rail_fast ship container cable_car subway aircraft wheelchair scooter drone" speed="3.65" length="3.44" shape="1748.57,1333.86 1748.59,1334.06 1748.24,1334.88 1747.37,1335.10 1745.99,1334.70" />
    </edge>
    <edge id=":1249297139_0" function="internal">
        <lane id=":1249297139_0_0" index="0" disallow="tram rail_urban rail rail_electric rail_fast ship container cable_car subway aircraft wheelchair scooter drone" speed="13.89" length="8.33" shape="1926.55,1658.82 1926.17,1661.29 1926.64,1663.12 1927.06,1664.92 1926.53,1667.33" />
        <lane id=":1249297139_0_1" index="1" disallow="tram rail_urban rail rail_electric rail_fast ship container cable_car subway aircraft wheelchair scooter drone" speed="13.89" length="8.33" shape="1926.55,1658.82 1923.61,1666.02" />
        <lane id=":1249297139_0_2" index="2" disallow="tram rail_urban rail rail_electric rail_fast ship container cable_car subway aircraft wheelchair scooter drone" speed="13.89" length="8.33" shape="1926.55,1658.82 1925.26,1660.85 1923.71,1661.81 1922.12,1662.74 1920.69,1664.72" />
    </edge>
    <edge id=":1249567541_0" function="internal">
        <lane id=":1249567541_0_0" index="0" disallow="tram rail_urban rail rail_electric rail_fast ship container cable_car subway aircraft wheelchair scooter drone" speed="9.17" length="10.38" shape="1854.49,1800.22 1854.03,1797.45 1853.15,1795.13 1851.83,1793.26 1850.07,1791.83" />
        <lane id=":1249567541_0_1" index="1" disallow="tram rail_urban rail rail_electric rail_fast ship container cable_car subway aircraft wheelchair scooter drone" speed="12.85" length="10.38" shape="1857.68,1799.96 1857.30,1796.79 1856.60,1794.67 1855.34,1792.79 1853.24,1790.34" />
    </edge>
    <edge id=":1249567541_2" function="internal">
        <lane id=":1249567541_2_0" index="0" disallow="tram rail_urban rail rail_electric rail_fast ship container cable_car subway aircraft wheelchair scooter drone" speed="13.89" length="10.10" shape="1857.68,1799.96 1857.23,1796.98 1856.80,1794.86 1856.84,1792.83 1857.82,1790.12" />
        <lane id=":1249567541_2_1" index="1" disallow="tram rail_urban rail rail_electric rail_fast ship container cable_car subway aircraft wheelchair scooter drone" speed="13.83" length="9.19" shape="1857.68,1799.96 1857.72,1797.32 1858.32,1795.58 1859.35,1793.91 1860.70,1791.52" />
    </edge>
    <edge id=":1249567542_0" function="internal">
        <lane id=":1249567542_0_0" index="0" disallow="tram rail_urban rail rail_electric rail_fast ship container cable_car subway aircraft wheelchair scooter drone" speed="9.69" length="9.76" shape="1837.57,1811.19 1839.55,1812.10 1841.68,1812.55 1843.96,1812.53 1846.38,1812.04" />
        <lane id=":1249567542_0_1" index="1" disallow="tram rail_urban rail rail_electric rail_fast ship container cable_car subway aircraft wheelchair scooter drone" speed="10.33" length="9.76" shape="1837.14,1814.67 1839.20,1815.55 1841.57,1815.92 1844.26,1815.77 1847.27,1815.12" />
    </edge>
    <edge id=":1249567542_2" function="internal">
        <lane id=":1249567542_2_0" index="0" disallow="tram rail_urban rail rail_electric rail_fast ship container cable_car subway aircraft wheelchair scooter drone" speed="12.88" length="9.75" shape="1838.66,1819.03 1840.51,1816.41 1841.84,1814.53 1843.52,1813.16 1846.38,1812.04" />
        <lane id=":1249567542_2_1" index="1" disallow="tram rail_urban rail rail_electric rail_fast ship container cable_car subway aircraft wheelchair scooter drone" speed="11.65" length="9.75" shape="1841.18,1821.00 1842.66,1818.83 1843.68,1817.24 1844.97,1816.06 1847.27,1815.12" />
    </edge>
    <edge id=":1249567544_0" function="internal">
        <lane id=":1249567544_0_0" index="0" disallow="tram rail_urban rail rail_electric rail_fast ship container cable_car subway aircraft wheelchair scooter drone" speed="9.14" length="9.33" shape="1831.51,1803.03 1832.10,1805.36 1833.02,1807.33 1834.27,1808.93 1835.84,1810.15" />
        <lane id=":1249567544_0_1" index="1" disallow="tram rail_urban rail rail_electric rail_fast ship container cable_car subway aircraft wheelchair scooter drone" speed="9.84" length="9.33" shape="1828.35,1803.57 1829.06,1806.54 1830.07,1808.96 1831.37,1810.84 1832.98,1812.17" />
    </edge>
    <edge id=":1249567544_2" function="internal">
        <lane id=":1249567544_2_0" index="0" disallow="tram rail_urban rail rail_electric rail_fast ship container cable_car subway aircraft wheelchair scooter drone" speed="11.32" length="9.31" shape="1828.35,1803.57 1829.00,1806.28 1829.53,1808.24 1829.52,1810.10 1828.52,1812.54" />
        <lane id=":1249567544_2_1" index="1" disallow="tram rail_urban rail rail_electric rail_fast ship container cable_car subway aircraft wheelchair scooter drone" speed="10.62" length="8.17" shape="1828.35,1803.57 1828.49,1805.88 1828.00,1807.44 1827.03,1808.92 1825.72,1810.99" />
    </edge>
    <edge id=":1249567564_0" function="internal">
        <lane id=":1249567564_0_0" index="0" disallow="tram rail_urban rail rail_electric rail_fast ship container cable_car subway aircraft wheelchair scooter drone" speed="13.89" length="7.61" shape="1921.87,1697.96 1922.85,1696.05 1923.14,1694.56 1923.37,1693.03 1924.16,1691.00" />
        <lane id=":1249567564_0_1" index="1" disallow="tram rail_urban rail rail_electric rail_fast ship container cable_car subway aircraft wheelchair scooter drone" speed="13.89" length="7.61" shape="1921.87,1697.96 1923.31,1696.26 1924.56,1695.30 1925.75,1694.30 1926.99,1692.48" />
        <lane id=":1249567564_0_2" index="2" disallow="tram rail_urban rail rail_electric rail_fast ship container cable_car subway aircraft wheelchair scooter drone" speed="13.89" length="7.61" shape="1924.53,1699.74 1926.02,1697.96 1927.31,1696.94 1928.54,1695.88 1929.83,1693.97" />
    </edge>
    <edge id=":1249567568_0" function="internal">
        <lane id=":1249567568_0_0" index="0" disallow="tram rail_urban rail rail_electric rail_fast ship container cable_car subway aircraft wheelchair scooter drone" speed="13.89" length="7.67" shape="1950.98,1582.88 1952.19,1580.88 1952.74,1579.32 1953.34,1577.81 1954.72,1575.95" />
        <lane id=":1249567568_0_1" index="1" disallow="tram rail_urban rail rail_electric rail_fast ship container cable_car subway aircraft wheelchair scooter drone" speed="13.89" length="7.67" shape="1953.53,1584.81 1954.68,1582.89 1955.19,1581.38 1955.74,1579.92 1957.06,1578.14" />
        <lane id=":1249567568_0_2" index="2" disallow="tram rail_urban rail rail_electric rail_fast ship container cable_car subway aircraft wheelchair scooter drone" speed="13.89" length="7.67" shape="1953.53,1584.81 1955.03,1583.25 1956.36,1582.47 1957.73,1581.75 1959.40,1580.32" />
    </edge>
    <edge id=":1249570061_0" function="internal">
        <lane id=":1249570061_0_0" index="0" disallow="tram rail_urban rail rail_electric rail_fast ship container cable_car subway aircraft wheelchair scooter drone" speed="10.08" length="14.09" shape="1721.18,1943.90 1718.05,1942.29 1714.77,1941.66 1711.36,1941.99 1707.80,1943.30" />
    </edge>
    <edge id=":1249570061_1" function="internal">
        <lane id=":1249570061_1_0" index="0" disallow="tram rail_urban rail rail_electric rail_fast ship container cable_car subway aircraft wheelchair scooter drone" speed="13.89" length="15.32" shape="1721.88,1937.35 1717.52,1939.58 1714.04,1940.93 1710.96,1941.98 1707.80,1943.30" />
    </edge>
    <edge id=":1345078977_0" function="internal">
        <lane id=":1345078977_0_0" index="0" disallow="pedestrian bicycle tram rail_urban rail rail_electric rail_fast ship container cable_car subway aircraft wheelchair scooter drone" speed="19.44" length="33.85" shape="320.95,1235.49 352.66,1223.63" />
        <lane id=":1345078977_0_1" index="1" disallow="pedestrian bicycle tram rail_urban rail rail_electric rail_fast ship container cable_car subway aircraft wheelchair scooter drone" speed="19.44" length="33.85" shape="321.93,1238.53 353.63,1226.68" />
    </edge>
    <edge id=":1345078977_2" function="internal">
        <lane id=":1345078977_2_0" index="0" disallow="pedestrian bicycle tram rail_urban rail rail_electric rail_fast ship container cable_car subway aircraft wheelchair scooter drone" speed="16.67" length="33.67" shape="323.48,1242.16 329.89,1238.36 336.48,1234.32 344.12,1230.34 353.63,1226.68" />
        <lane id=":1345078977_2_1" index="1" disallow="pedestrian bicycle tram rail_urban rail rail_electric rail_fast ship container cable_car subway aircraft wheelchair scooter drone" speed="16.67" length="33.67" shape="325.02,1244.97 331.33,1241.20 337.73,1237.25 345.17,1233.35 354.59,1229.73" />
    </edge>
    <edge id=":1345103809_0" function="internal">
        <lane id=":1345103809_0_0" index="0" disallow="tram rail_urban rail rail_electric rail_fast ship container cable_car subway aircraft wheelchair scooter drone" speed="11.11" length="12.24" shape="490.61,2412.45 487.31,2412.73 484.54,2413.16 481.81,2413.78 478.59,2414.62" />
    </edge>
    <edge id=":1345103809_1" function="internal">
        <lane id=":1345103809_1_0" index="0" disallow="tram rail_urban rail rail_electric rail_fast ship container cable_car subway aircraft wheelchair scooter drone" speed="5.54" length="9.44" shape="482.77,2419.45 483.58,2416.63 483.16,2414.89 481.49,2414.22 478.59,2414.62" />
    </edge>
    <edge id=":1345143345_0" function="internal">
        <lane id=":1345143345_0_0" index="0" disallow="tram rail_urban rail rail_electric rail_fast ship container cable_car subway aircraft wheelchair scooter drone" speed="11.11" length="7.76" width="6.00" shape="553.78,1965.11 555.51,1966.61 556.92,1967.39 558.29,1968.20 559.87,1969.83" />
    </edge>
    <edge id=":1345143408_0" function="internal">
        <lane id=":1345143408_0_0" index="0" disallow="tram rail_urban rail rail_electric rail_fast ship container cable_car subway aircraft wheelchair scooter drone" speed="11.11" length="7.89" shape="327.62,1894.96 329.85,1895.30 331.43,1895.13 333.02,1894.90 335.29,1895.08" />
        <lane id=":1345143408_0_1" index="1" disallow="tram rail_urban rail rail_electric rail_fast ship container cable_car subway aircraft wheelchair scooter drone" speed="11.11" length="7.89" shape="327.62,1894.96 329.77,1895.80 331.13,1896.70 332.50,1897.55 334.70,1898.22" />
        <lane id=":1345143408_0_2" index="2" disallow="tram rail_urban rail rail_electric rail_fast ship container cable_car subway aircraft wheelchair scooter drone" speed="11.11" length="7.89" shape="326.78,1898.05 329.01,1898.90 330.42,1899.82 331.84,1900.68 334.10,1901.37" />
    </edge>
    <edge id=":1358272512_0" function="internal">
        <lane id=":1358272512_0_0" index="0" disallow="tram rail_urban rail rail_electric rail_fast ship container cable_car subway aircraft wheelchair scooter drone" speed="7.99" length="10.28" shape="779.31,2218.38 777.03,2217.91 774.87,2218.10 772.83,2218.94 770.91,2220.44" />
        <lane id=":1358272512_0_1" index="1" disallow="tram rail_urban rail rail_electric rail_fast ship container cable_car subway aircraft wheelchair scooter drone" speed="8.87" length="10.28" shape="780.35,2215.36 777.22,2214.63 774.41,2214.68 771.89,2215.52 769.69,2217.15" />
    </edge>
    <edge id=":1358272512_2" function="internal">
        <lane id=":1358272512_2_0" index="0" disallow="tram rail_urban rail rail_electric rail_fast ship container cable_car subway aircraft wheelchair scooter drone" speed="11.11" length="10.22" shape="780.35,2215.36 777.26,2214.70 774.98,2214.66 772.86,2214.32 770.25,2212.79" />
        <lane id=":1358272512_2_1" index="1" disallow="tram rail_urban rail rail_electric rail_fast ship container cable_car subway aircraft wheelchair scooter drone" speed="11.11" length="10.22" shape="780.35,2215.36 777.65,2214.31 775.93,2213.31 774.35,2212.04 772.10,2210.18" />
    </edge>
    <edge id=":1358272514_0" function="internal">
        <lane id=":1358272514_0_0" index="0" disallow="tram rail_urban rail rail_electric rail_fast ship container cable_car subway aircraft wheelchair scooter drone" speed="10.43" length="9.78" shape="790.18,2224.81 788.77,2222.60 787.41,2221.34 785.67,2220.55 783.12,2219.69" />
        <lane id=":1358272514_0_1" index="1" disallow="tram rail_urban rail rail_electric rail_fast ship container cable_car subway aircraft wheelchair scooter drone" speed="11.11" length="9.78" shape="792.47,2222.34 790.82,2219.82 789.19,2218.46 787.13,2217.62 784.16,2216.66" />
    </edge>
    <edge id=":1358272514_2" function="internal">
        <lane id=":1358272514_2_0" index="0" disallow="tram rail_urban rail rail_electric rail_fast ship container cable_car subway aircraft wheelchair scooter drone" speed="11.11" length="9.54" shape="793.24,2218.13 790.32,2219.35 788.20,2220.19 786.07,2220.39 783.12,2219.69" />
        <lane id=":1358272514_2_1" index="1" disallow="tram rail_urban rail rail_electric rail_fast ship container cable_car subway aircraft wheelchair scooter drone" speed="10.72" length="9.54" shape="792.15,2215.12 789.83,2216.14 788.16,2216.91 786.49,2217.17 784.16,2216.66" />
    </edge>
    <edge id=":1358272531_0" function="internal">
        <lane id=":1358272531_0_0" index="0" disallow="tram rail_urban rail rail_electric rail_fast ship container cable_car subway aircraft wheelchair scooter drone" speed="11.11" length="16.09" shape="793.14,2239.75 793.61,2235.20 793.42,2232.01 792.36,2228.98 790.24,2224.92" />
        <lane id=":1358272531_0_1" index="1" disallow="tram rail_urban rail rail_electric rail_fast ship container cable_car subway aircraft wheelchair scooter drone" speed="11.11" length="16.09" shape="796.31,2240.16 796.87,2235.30 796.77,2231.87 795.75,2228.61 793.53,2224.27" />
    </edge>
    <edge id=":1358272531_2" function="internal">
        <lane id=":1358272531_2_0" index="0" disallow="tram rail_urban rail rail_electric rail_fast ship container cable_car subway aircraft wheelchair scooter drone" speed="11.11" length="15.54" width="6.00" shape="796.31,2240.16 797.21,2235.30 798.41,2231.70 799.95,2228.76 801.84,2225.83" />
    </edge>
    <edge id=":1358272552_0" function="internal">
        <lane id=":1358272552_0_0" index="0" disallow="tram rail_urban rail rail_electric rail_fast ship container cable_car subway aircraft wheelchair scooter drone" speed="5.33" length="1.87" shape="775.24,2257.32 776.35,2258.83" />
    </edge>
    <edge id=":1358272552_1" function="internal">
        <lane id=":1358272552_1_0" index="0" disallow="tram rail_urban rail rail_electric rail_fast ship container cable_car subway aircraft wheelchair scooter drone" speed="7.76" length="4.13" shape="772.85,2259.45 773.64,2260.37 774.08,2261.10 774.30,2261.92 774.41,2263.12" />
    </edge>
    <edge id=":1358272554_0" function="internal">
        <lane id=":1358272554_0_0" index="0" disallow="tram rail_urban rail rail_electric rail_fast ship container cable_car subway aircraft wheelchair scooter drone" speed="10.54" length="9.96" shape="782.04,2257.91 784.96,2256.59 787.31,2254.99 789.10,2253.12 790.31,2250.96" />
        <lane id=":1358272554_0_1" index="1" disallow="tram rail_urban rail rail_electric rail_fast ship container cable_car subway aircraft wheelchair scooter drone" speed="9.44" length="9.96" shape="788.14,2259.08 789.49,2258.26 790.80,2256.84 792.06,2254.81 793.28,2252.16" />
    </edge>
    <edge id=":1358272554_2" function="internal">
        <lane id=":1358272554_2_0" index="0" disallow="tram rail_urban rail rail_electric rail_fast ship container cable_car subway aircraft wheelchair scooter drone" speed="11.11" length="12.24" shape="787.93,2263.20 788.18,2259.48 788.43,2256.92 789.02,2254.44 790.31,2250.96" />
        <lane id=":1358272554_2_1" index="1" disallow="tram rail_urban rail rail_electric rail_fast ship container cable_car subway aircraft wheelchair scooter drone" speed="11.11" length="12.24" shape="791.09,2263.81 791.32,2260.27 791.53,2257.83 792.06,2255.47 793.28,2252.16" />
    </edge>
    <edge id=":1358272562_0" function="internal">