<?xml version="1.0" encoding="UTF-8"?>

<!-- generated on 2025-06-27 10:59:35 by Eclipse SUMO duarouter Version 1.23.1
<duarouterConfiguration xmlns:xsi="http://www.w3.org/2001/XMLSchema-instance" xsi:noNamespaceSchemaLocation="http://sumo.dlr.de/xsd/duarouterConfiguration.xsd">

    <input>
        <net-file value="data/raw/sumo/changi.net.xml"/>
        <route-files value="data/raw/sumo/changi_full.trips.xml"/>
    </input>

    <output>
        <output-file value="check.rou.xml"/>
    </output>

</duarouterConfiguration>
-->

<routes xmlns:xsi="http://www.w3.org/2001/XMLSchema-instance" xsi:noNamespaceSchemaLocation="http://sumo.dlr.de/xsd/routes_file.xsd">
    <vType id="car" length="5.00" maxSpeed="25.00" color="white" accel="2.6" decel="4.5" sigma="0.5"/>
    <vehicle id="taxi0" type="car" depart="0.00">
        <route edges="655809326 655809327 655835738 781983239 655835736#0 655835736#1 655835736#2 655835735 173490499 655835734 173490500#0 173490500#1 634211505 173010433 174402290 173489548 173489549 226219702 747282706 747282705 590380563 590380564 747282704 469553178 747282703 174402283 226219701 746657953 746657952 204192290 469333090 590331537 530374312 539096211 634834584 204335769"/>
    </vehicle>
    <vehicle id="taxi1" type="car" depart="1.00">
        <route edges="204335769 142868911 540288289 74737429#0 74737429#1 481780597 449239367 204192293 746659030 746659028 173010430 590374273 746659027#0 746659027#1 746659026#0 746659026#1 652040615 590374272#0 590374272#1 590374272#2 173010429#0 173010429#1 904633235 173488748 655806210 655806211 655699632 655699633 590331537 530374312 539096211 530360841 632763728 632763729 481949080 481949081"/>
    </vehicle>
    <vehicle id="taxi2" type="car" depart="2.00">
        <route edges="481949081 711201809 711201808 546182226 750425972 546182224 481949082 655687093 655687569 750425970 750425969 651145756 652289910 652289909 506882383 165370348 696949600 1114875080 506882381 530360842 204335769 142868911 540288289 74737429#0 74737429#1 481780597 449239367 204192293 634172733 724314586 173010410 747282702 173488747 747282701 747290625 747290624 747290626 590331532 655809326 655809327 655835738"/>
    </vehicle>
    <vehicle id="taxi3" type="car" depart="3.00">
        <route edges="655835738 781983239 655835736#0 655835736#1 655835736#2 655835735 173490499 655835734 173490500#0 173490500#1 634211505 173010433 650044813 683277225 650044811 634225475 650044809 174402292#0 174402292#1 174402282 732433882 142797357 634221732 166327234 634257351 634257353 634257352 655685435 655685434 590374270 173491070"/>
    </vehicle>
    <vehicle id="taxi4" type="car" depart="4.00">
        <route edges="173491070 786126479 786126480 781961762 781961764#0 781961764#1 781961763 781984532 173491071 732433879 732433881 732433880 746646855 634152063 590331535 747290622 634722285 746646854 166327060 746646853 747282710 173010428#0 173010428#1 173488145 711187028 711187027 204192291 711187029 173010424 173010431 747282702 173488747 747282701 747290625 747290624 747290626 590331532 655809326 655809327 655835738"/>
    </vehicle>
    <vehicle id="taxi5" type="car" depart="5.00">
        <route edges="655835738 781983239 655835736#0 655835736#1 655835736#2 655835735 173490499 655835734 173490500#0 173490500#1 634211505 173010433 650044813 683277225 650044811 634225475 650044809 530353063 747290626 590331532 655809326"/>
    </vehicle>
    <vehicle id="taxi6" type="car" depart="6.00">
        <route edges="655809326 655809327 655835738 781983239 655835736#0 655835736#1 655835736#2 655835735 173490499 655835734 173490500#0 173490500#1 634211505 173010433"/>
    </vehicle>
    <vehicle id="taxi7" type="car" depart="7.00">
        <route edges="173010433 650044813 683277225 650044811 634225475 650044809 174402292#0 174402292#1 174402282 732433882 142797357 634221732 166327234 634257351 634257353 634257352 655685435 655685434 590374270 173491070"/>
    </vehicle>
    <vehicle id="taxi8" type="car" depart="8.00">
        <route edges="173491070 786126479 786126480 781961762 781961764#0 781961764#1 781961763 781984532 173491071 732433879 732433881 732433880 746646855 634152063 590331535 747290622 634722285 746646854 166327060 747282711 692137033 226219701 746657953 746657952 204192290 632152150 23149902 204335715 74535470 779838553 638069333 717446236 226216286 717446235 166741187 649636777 649636776 22617511 37584994#0 37584994#1 37584993 655660141#0 655660141#1 635338472#0 635338472#1 23064955 590331569 590331585 635288849 639567690#0 639567690#1 717446234 717446233 635288850 635288851 489492099 489492100 635275299#0 635275299#1 635275296 489492094#0 489492094#1 635275307 635275304 673295198 635275312#0 635275312#1 635275310#0 635275310#1 633812454#0 633812454#1 489492091 489492092#0 489492092#1 489492092#2 734702307 655137862#0 655137862#1 655137861#0 655137861#1 655137861#2 1320178843#0 1320178843#1 1320178843#2 1050919324 1051066773 1050919325 468685546#0 468685546#1 655137859 1324962894 655137860 646392137#0 646392137#1 641306813 630452413 641306811 641306809 641306807 630158115 468685548 656546062 666922412 657549046 630158413 641312725 630452166 641312723 641312726#0 641312726#1 641306558 641306559 468685547#0 468685547#1 709621846 639346969 1320177599 639346968 467899818#0 467899818#1 467899818#2 630156586 166975172 539755571#0 539755571#1 539755570 727462451 166975175 727462450 727462449 727468400 727468399 166975170 652384659 534921249 534921246 166987975 166987974 634216307 727468396 727468395 471547482#0 471547482#1 633814778#0 633814778#1 471547479 633814777 633587306 634146389#0 634146389#1 325024318#0 325024318#1 631934277 727473277 471356706 727468394 85001249 471357859 173767964 631930875#0 631930875#1 631919766 634784575#0 634784575#1 634200332 649556671 634200334 631919765 633809076 633809075 634175397 649439759 634175394 634175395 174717951 631913909 631913908 639634403 471353380 635298657 471353381 174717953 23064956 22981700 633808401 635296702 539002929 633808404 633805410 632154842#0 632154842#1 471308505 655630669#0 655630669#1 655630668 539002934#0 539002934#1 22617051 634192174 634152492 471272313#0 471272313#1 718263209 74574408#0 74574408#1 632265380 632265379 632265381#0 632265381#1 713263961 713263960 22617159 634163068 471272307#0 471272307#1 512991767#0 512991767#1 646242849 173713415#0 173713415#1 816364542#0 816364542#1 816364542#2 537636430 537636429 635753012 655678272 635746760 645298277 173713439 539002949 537636434 639896463 537636439 639896314 655686263 537636442#0 537636442#1 261847817#0 261847817#1 261847817#2 534928454 74480541#0 74480541#1 639963393 469594851#0 469594851#1 633800622#0 633800622#1 539002958#0 539002958#1 633801031 633801029 634142051 634269602#0 634269602#1 223863492 634269599#0 634269599#1 634207068 649224931 469714503 469790797#0 469790797#1 74663246#0 74663246#1 539004581 469790798#0 469790798#1 634147491 793698253 469790799 469692822 583990920 793695859 34403298 744637265 744637264 744637263 34403373#0 34403373#1 738399220 174402286 631916003 631916002 74662603 933827235 933827236 933827237 933828118 631927568 712397873#0 712397873#1 882971571 882971570 651135161 696946494 696946493 530362932 1114875082 1114875081 481780600 481780604 481780605"/>
    </vehicle>
    <vehicle id="taxi9" type="car" depart="9.00">
        <route edges="481780605 74737400 632763727 632763728 632763729 481949084 655688364 655688725 655688603 655688982#0 655688982#1 655689130"/>
    </vehicle>
    <vehicle id="taxi10" type="car" depart="10.00">
        <route edges="655689130 655689131 522398498 652289910 652289909 506882383 165370348 696949600 1114875080 506882381 530360842 204335769 142868911 540288289 74737429#0 74737429#1 481780597 449239367 204192293"/>
    </vehicle>
    <vehicle id="taxi11" type="car" depart="11.00">
        <route edges="204192293 634172733 724314586 23149904 747282707 174402282 732433882 142797357 634221732 166327234 634257351 634257353 634257352 655685435 655685434 590374270 173491070"/>
    </vehicle>
    <vehicle id="taxi12" type="car" depart="12.00">
        <route edges="173491070 786126479 786126480 781961762 781961764#0 781961764#1 781961763 781984532 173491071 732433879 732433881 732433880 746646855 634152063 590331535 747290622 634722285 746646854 166327060 746646853 747282710 173010428#0 173010428#1 173488145 711187028 711187027 204192291 711187029 173010424 173010431 747282702 173488747 747282701 590374271 174402292#1 174402282 732433882 590374268 781983237 590374267 781661280 781661279 781694986 174402284 631939382 631939383 631939384 22700276 22700281#0 22700281#1 174402288 634990151 634990152#0 634990152#1"/>
    </vehicle>
    <vehicle id="taxi13" type="car" depart="13.00">
        <route edges="634990152#1 781670669 469553174 469553173 748612715 634958977 781694985 781694984 688067545 1133344796 634170494 469553175 469219849 634257353 634257352 655685435 173010408#0 173010408#1 781984530 732433879 732433881 732433880 746646855 634152063 590331535 747290622 634722285 746646854 166327060 746646853 747282710 173010428#0 173010428#1 173488145 711187028 711187027 204192291 711187029 173010424 173010431 747282702 173488747 747282701 747290625 747290624 747290626 590331532 655809326"/>
    </vehicle>
    <vehicle id="taxi14" type="car" depart="14.00">
        <route edges="655809326 655809327 655835738 781983239 655835736#0 655835736#1 655835736#2 655835735 173490499 655835734 173490500#0 173490500#1 634211505 173010433 650044813 683277225 650044811 634225475 650044809 530353063 747290626"/>
    </vehicle>
    <vehicle id="taxi15" type="car" depart="15.00">
        <route edges="747290626 173010409 747290623 173490497 711177857 781983238 173490498#0 173490498#1 173490498#2 781703388 781698818 394292102 174402295 904633236 539290115#0"/>
    </vehicle>
    <vehicle id="taxi16" type="car" depart="16.00">
        <route edges="539290115#0 539290115#1 539290115#2 539290115#3 539290115#4 539290115#5 539290115#6 539290115#7 174402287 539290105 539290107 688067546 634957579#0 634957579#1 781694983 22700279 634866900 634170494 469553175 469219849 634257353 634257352 655685435 173010408#0 173010408#1 781984530 732433879 732433881 732433880 746646855 634152063 590331535 747290622 634722285 746646854 166327060 746646853 747282710 173010428#0 173010428#1 173488145 711187028 711187027 204192291 711187029 173010424 173010431 747282702 173488747 747282701 747290625 747290624 747290626 590331532 655809326 655809327 655835738 781983239"/>
    </vehicle>
    <vehicle id="taxi17" type="car" depart="17.00">
        <route edges="781983239 655835736#0 655835736#1 655835736#2 655835735 173490499 655835734 173490500#0 173490500#1 634211505 173010433 650044813 683277225 650044811 634225475 650044809 530353063 747290626 173010409 747290623 173490497 711177857 781983238 173490498#0 173490498#1 173490498#2 781703388 781698818 394292102 174402295 904633236 539290115#0"/>
    </vehicle>
    <vehicle id="taxi18" type="car" depart="18.00">
        <route edges="539290115#0 539290115#1 539290115#2 539290115#3 539290115#4 539290115#5 539290115#6 539290115#7 174402287 539290105 539290107 688067546 634957579#0 634957579#1 781694983 22700279 634866900 634170494 469553175 469219849 634257353 634257352 655685435 173010408#0 173010408#1 781984530 732433879 732433881 732433880 746646855 634152063 590331535 747290622 634722285 746646854 166327060 746646853 747282710 173010428#0 173010428#1 173488145 711187028 711187027 204192291 711187029 173010424 173010431 747282702 173488747 747282701 747290625 747290624 747290626 590331532 655809326"/>
    </vehicle>
    <vehicle id="taxi19" type="car" depart="19.00">
        <route edges="655809326 655809327 655835738 781983239 655835736#0 655835736#1 655835736#2 655835735 173490499 655835734 173490500#0 173490500#1 634211505 173010433 650044813 683277225 650044811 634225475 650044809 530353063 747290626 173010409 747290623 173490497 711177857 781983238 173490498#0 173490498#1 173490498#2 781703388 781698818 394292102 174402295 904633236 539290115#0"/>
    </vehicle>
    <vehicle id="taxi20" type="car" depart="20.00">
        <route edges="539290115#0 539290115#1 539290115#2 539290115#3 539290115#4 539290115#5 539290115#6 539290115#7 174402287 539290105 539290107 688067546 634957579#0 634957579#1 781694983 22700279 634866900 634170494 469553175 469219849 634257353 634257352 655685435 173010408#0 173010408#1 781984530 732433879 732433881 732433880 746646855 634152063 590331535 747290622 634722285 746646854 166327060 746646853 747282710 173010428#0 173010428#1 173488145 711187028 711187027 204192291 711187029 173010424 173010431 747282702 173488747 747282701 747290625 747290624 747290626 590331532 655809326 655809327 655835738 781983239 655835736#0 655835736#1 655835736#2 655835735 173490499 655835734 173490500#0 173490500#1 634211505 173010433 650044813 683277225"/>
    </vehicle>
    <vehicle id="taxi21" type="car" depart="21.00">
        <route edges="683277225"/>
    </vehicle>
    <vehicle id="taxi22" type="car" depart="22.00">
        <route edges="683277225 650044811 634225475 650044809 174402292#0 174402292#1 174402282 732433882 590374268 781983237 590374267 781661280 781661279 781694986 174402284 631939382 631939383 631939384 22700276 22700281#0 22700281#1 174402288"/>
    </vehicle>
    <vehicle id="taxi23" type="car" depart="23.00">
        <route edges="174402288 634990151 634990152#0 652543200 781673025 781673024 781673026 748612715 634958977 781694985 781694984 688067545 1133344796 634170494 469553175 469553176 469553177 226219702 747282706 747282705 590380563 590380564 747282704 469553178 747282703 174402283 226219701 746657953 746657952 204192290 469333090 590331537 530374312 539096211 530360841 632763728 632763729 481949080 481949081 711201809"/>
    </vehicle>
    <vehicle id="taxi24" type="car" depart="24.00">
        <route edges="711201809 711201808 546182226 750425972 546182224 481949082 655687093 655687569 750425970 750425969 651145756 652289910 652289909 506882383 165370348 696949600 1114875080 506882381 530360842 204335769 142868911 540288289 74737429#0 74737429#1 481780597 449239367 204192293 634172733 724314586 23149904 747282707 174402282 732433882 590374268 781983237 590374267 781661280"/>
    </vehicle>
    <vehicle id="taxi25" type="car" depart="25.00">
        <route edges="781661280 781661279 781694986 174402284 631939382 631939383 1133348458 1133344796 634170494 469553175 469219849 634257353 634257352 655685435 655685434 590374270 173491070"/>
    </vehicle>
    <vehicle id="taxi26" type="car" depart="26.00">
        <route edges="173491070 786126479 786126480 781961762 781961764#0 781961764#1 781961763 781984532 173491071 732433879 732433881 732433880 746646855 523138280 652320460 1330785127 634221732 166327234 634257351 634257353 634257352 655685435 655685434 655685433 655685432"/>
    </vehicle>
    <vehicle id="taxi27" type="car" depart="27.00">
        <route edges="655685432 655685431 173010427 173491881 688067546 634957579#0 634957579#1 781694983 22700279 634866900 634170494 469553175 469219849 634257353 634257352 655685435 173010408#0 173010408#1 781984530 732433879 732433881 732433880 746646855 634152063 590331535 747290622 634722285 746646854 166327060 746646853 747282710 173010428#0 173010428#1 173488145 711187028 711187027 204192291 711187029 173010424 173010431 747282702 173488747 747282701 747290625 747290624 747290626 173010409 747290623"/>
    </vehicle>
    <vehicle id="taxi28" type="car" depart="28.00">
        <route edges="747290623 173490497 711177857 781983238 173490498#0 173490498#1 173490498#2 781703388 781698818 1022550233 173490496 781679876 634211505 173010433 174402290 173489548 173489549 226219702 747282706 747282705 590380563 590380564 747282704 469553178 747282703 174402283 226219701"/>
    </vehicle>
    <vehicle id="taxi29" type="car" depart="29.00">
        <route edges="226219701 746657953 746657952 204192290 469333090 590331537 530374312 539096211 634834584 204335769 142868911 540288289 74737429#0 74737429#1 481780597 449239367 204192293 634172733 724314586 23149904 747282707 174402282 732433882 142797357 634221732 166327234 634257351 634257353 634257352 655685435 655685434 590374270 173491070"/>
    </vehicle>
    <vehicle id="taxi30" type="car" depart="30.00">
        <route edges="173491070"/>
    </vehicle>
    <vehicle id="taxi31" type="car" depart="31.00">
        <route edges="173491070 786126479 786126480 781961762 781961764#0 781961764#1 781961763 781984532 173491071 732433879 732433881 732433880 746646855 634152063 590331535 747290622 634722285 746646854 166327060 746646853 747282710 173010428#0 173010428#1 173488145 711187028 711187027 204192291 711187029 173010424 173010431 747282702 173488747 747282701 747290625 747290624 747290626 590331532 655809326 655809327 655835738"/>
    </vehicle>
    <vehicle id="taxi32" type="car" depart="32.00">
        <route edges="655835738 781983239 655835736#0 655835736#1 655835736#2 655835735 173490499 655835734 173490500#0 173490500#1 634211505 173010433 174402290 173489548 173489549 226219702 747282706 747282705 590380563 590380564 747282704 469553178 747282703 174402283 226219701 746657953 746657952 204192290 469333090 590331537 530374312 539096211 530360841 632763728 632763729 481949080 481949081 711201809 711201808"/>
    </vehicle>
    <vehicle id="taxi33" type="car" depart="33.00">
        <route edges="711201808 546182226 750425972 546182224 481949082 655687093 655687569 750425970 750425969 651145756 652289910 652289909 506882383 165370348 696949600 1114875080 506882381 530360842 204335769 142868911 540288289 74737429#0 74737429#1 481780597 449239367 204192293 634172733 724314586 173010410 747282702 173488747 747282701 747290625 747290624 747290626 590331532 655809326"/>
    </vehicle>
    <vehicle id="taxi34" type="car" depart="34.00">
        <route edges="655809326 655809327 655835738 781983239 655835736#0 655835736#1 655835736#2 655835735 173490499 655835734 173490500#0 173490500#1 634211505 173010433 174402290 173489548 173489549 226219702 747282706 747282705 590380563 590380564 747282704 469553178 747282703 174402283 226219701 746657953 746657952 204192290 469333090 590331537 530374312 539096211 530360841 632763728 632763729 481949080 481949081"/>
    </vehicle>
    <vehicle id="taxi35" type="car" depart="35.00">
        <route edges="481949081 711201809 711201808 546182226 750425972 546182224 481949082 655687093 655687569 750425970 750425969 651145756 652289910 652289909 506882383 165370348 696949600 1114875080 506882381 530360842 204335769 142868911 540288289 74737429#0 74737429#1 481780597 449239367 204192293 634172733 724314586 23149904 747282707 174402282 732433882 142797357 634221732 166327234 634257351 634257353 634257352 655685435 655685434 590374270 173491070"/>
    </vehicle>
    <vehicle id="taxi36" type="car" depart="36.00">
        <route edges="173491070 786126479 786126480 781961762 781961764#0 781961764#1 781961763 781984532 173491071 732433879 732433881 732433880 746646855 634152063 590331535 747290622 634722285 746646854 166327060 746646853 747282710 173010428#0 173010428#1 173488145 711187028 711187027 204192291 711187029 173010424 173010431 747282702 173488747 747282701 747290625 747290624 747290626 590331532 655809326 655809327 655835738"/>
    </vehicle>
    <vehicle id="taxi37" type="car" depart="37.00">
        <route edges="655835738 781983239 655835736#0 655835736#1 655835736#2 655835735 173490499 655835734 173490500#0 173490500#1 634211505 173010433 650044813 683277225 650044811 634225475 650044809 174402292#0 174402292#1 174402282 732433882 590374268 781983237 590374267 781661280 781661279 781694986 174402284 631939382 631939383 631939384 22700276 22700281#0 22700281#1"/>
    </vehicle>
    <vehicle id="taxi38" type="car" depart="38.00">
        <route edges="22700281#1 174402288 634990151 634990152#0 652543200 781673025 781673024 781673026 748612715 634958977 781694985 781694984 688067545 1133344796 634170494 469553175 469219849 634257353 634257352 655685435 173010408#0 173010408#1 781984530 732433879 732433881 732433880 746646855 634152063 590331535 747290622 634722285 746646854 166327060 746646853 747282710 173010428#0 173010428#1 173488145 711187028 711187027 204192291 711187029 173010424 173010431 747282702 173488747 747282701 747290625 747290624 747290626 590331532 655809326"/>
    </vehicle>
    <vehicle id="taxi39" type="car" depart="39.00">
        <route edges="655809326 655809327 655835738 781983239 655835736#0 655835736#1 655835736#2 655835735 173490499 655835734 173490500#0 173490500#1 634211505 173010433 174402290 173489548 173489549 226219702 747282706 747282705 590380563 590380564 747282704 469553178 747282703 174402283 226219701 746657953 746657952 204192290 469333090 590331537 530374312 539096211 530360841 632763728 632763729 481949080 481949081 711201809"/>
    </vehicle>
    <vehicle id="taxi40" type="car" depart="40.00">
        <route edges="711201809 711201808 546182226 750425972 546182224 481949082 655687093 655687569 750425970 750425969 651145756 652289910 652289909 506882383 165370348 696949600 1114875080 506882381 530360842 204335769 142868911 540288289 74737429#0 74737429#1 481780597 449239367 204192293 634172733 724314586 173010410 747282702 173488747 747282701 747290625 747290624 747290626 590331532 655809326 655809327 655835738"/>
    </vehicle>
    <vehicle id="taxi41" type="car" depart="41.00">
        <route edges="655835738 781983239 655835736#0 655835736#1 655835736#2 655835735 173490499 655835734 173490500#0 173490500#1 634211505 173010433 650044813 683277225 650044811 634225475 650044809 174402292#0 174402292#1 174402282 732433882 142797357 634221732 166327234 634257351 634257353 634257352 655685435 655685434 590374270"/>
    </vehicle>
    <vehicle id="taxi42" type="car" depart="42.00">
        <route edges="590374270 173491070 786126479 786126480 781961762 781961764#0 781961764#1 781961763 781984532 173491071 732433879 732433881 732433880 746646855 523138280 652320460 1330785127 634221732 166327234 634257351 634257353 634257352 655685435 655685434 655685433 655685432"/>
    </vehicle>
    <vehicle id="taxi43" type="car" depart="43.00">
        <route edges="655685432 655685431 173010427 173491881 688067546 634957579#0 634957579#1 781694983 22700279 634866900 634170494 469553175 469219849 634257353 634257352 655685435 173010408#0 173010408#1 781984530 732433879 732433881 732433880 746646855 634152063 590331535 747290622 634722285 746646854 166327060 746646853 747282710 173010428#0 173010428#1 173488145 711187028 711187027 204192291 711187029 173010424 173010431 747282702 173488747 747282701 747290625 747290624 747290626 590331532 655809326"/>
    </vehicle>
    <vehicle id="taxi44" type="car" depart="44.00">
        <route edges="655809326 655809327 655835738 781983239 655835736#0 655835736#1 655835736#2 655835735 173490499 655835734 173490500#0 173490500#1 634211505 173010433 174402290 173489548 173489549 226219702 747282706 747282705 590380563 590380564 747282704 469553178 747282703 174402283 226219701 746657953 746657952 204192290 469333090 590331537 530374312 539096211 530360841 632763728 632763729 481949080 481949081 711201809"/>
    </vehicle>
    <vehicle id="taxi45" type="car" depart="45.00">
        <route edges="711201809 711201808 546182226 750425972 546182224 481949082 655687093 655687569 750425970 750425969 651145756 652289910 652289909 506882383 165370348 696949600 1114875080 506882381 530360842 204335769 142868911 540288289 74737429#0 74737429#1 481780597 449239367 204192293 634172733 724314586 173010410 747282702 173488747 747282701 747290625 747290624 747290626 590331532 655809326 655809327 655835738 781983239 655835736#0 655835736#1 655835736#2 655835735 173490499 655835734 173490500#0 173490500#1 634211505"/>
    </vehicle>
    <vehicle id="taxi46" type="car" depart="46.00">
        <route edges="634211505 173010433 650044813 683277225 650044811 634225475 650044809 530353063 747290626 173010409 747290623 173490497 711177857 781983238 173490498#0 173490498#1 173490498#2 781703388 781698818 394292102 174402295 904633236"/>
    </vehicle>
    <vehicle id="taxi47" type="car" depart="47.00">
        <route edges="904633236 539290115#0 539290115#1 539290115#2 539290115#3 539290115#4 539290115#5 539290115#6 539290115#7 174402287 539290105 539290107 688067546 634957579#0 634957579#1 781694983 22700279 634866900 634170494 469553175 469219849 634257353 634257352 655685435 173010408#0 173010408#1 781984530 732433879 732433881 732433880 746646855 634152063 590331535 747290622 634722285 746646854 166327060 746646853 747282710 173010428#0 173010428#1 173488145 711187028 711187027 204192291 711187029 173010424 173010431 747282702 173488747 747282701 747290625 747290624 747290626 590331532 655809326 655809327 655835738 781983239 655835736#0"/>
    </vehicle>
    <vehicle id="taxi48" type="car" depart="48.00">
        <route edges="655835736#0 655835736#1 655835736#2 655835735 173490499 655835734 173490500#0 173490500#1 634211505 173010433 650044813 683277225 650044811 634225475 650044809 174402292#0 174402292#1 174402282 732433882 142797357 634221732 166327234 634257351 634257353 634257352 655685435 655685434 590374270 173491070"/>
    </vehicle>
    <vehicle id="taxi49" type="car" depart="49.00">
        <route edges="173491070 786126479 786126480 781961762 781961764#0 781961764#1 781961763 781984532 173491071 732433879 732433881 732433880 746646855 634152063 590331535 747290622 634722285 746646854 166327060 746646853 747282710 173010428#0 173010428#1 173488145 711187028 711187027 204192291 711187029 173010424 173010431 747282702 173488747 747282701 747290625 747290624 747290626 590331532 655809326"/>
    </vehicle>
    <vehicle id="taxi50" type="car" depart="50.00">
        <route edges="655809326 655809327 655835738 781983239 655835736#0 655835736#1 655835736#2 655835735 173490499 655835734 173490500#0 173490500#1 634211505 173010433 650044813 683277225 650044811 634225475 650044809 174402292#0 174402292#1 174402282 732433882 590374268 781983237 590374267 781661280 781661279 781694986 174402284 631939382 631939383 631939384 22700276 22700281#0"/>
    </vehicle>
    <vehicle id="taxi51" type="car" depart="51.00">
        <route edges="22700281#0 22700281#1 174402288 634990151 634990152#0 652543200 781673025 781673024 781673026 748612715 634958977 781694985 781694984 688067545 1133344796 634170494 469553175 469219849 634257353 634257352 655685435 655685434 590374270 173491070"/>
    </vehicle>
    <vehicle id="taxi52" type="car" depart="52.00">
        <route edges="173491070 786126479 786126480 781961762 781961764#0 781961764#1 781961763 781984532 173491071 732433879 732433881 732433880 746646855 634152063 590331535 747290622 634722285 746646854 166327060 746646853 747282710 173010428#0 173010428#1 173488145 711187028 711187027 204192291 711187029 173010424 173010431 747282702 173488747 747282701 747290625 747290624 747290626 590331532 655809326 655809327 655835738"/>
    </vehicle>
    <vehicle id="taxi53" type="car" depart="53.00">
        <route edges="655835738 781983239 655835736#0 655835736#1 655835736#2 655835735 173490499 655835734 173490500#0 173490500#1 634211505 173010433 174402290 173489548 173489549 226219702 747282706 747282705 590380563 590380564 747282704 469553178 747282703 174402283 226219701 746657953 746657952 204192290 469333090 590331537 530374312 539096211 530360841 632763728 632763729 481949080 481949081 711201809"/>
    </vehicle>
    <vehicle id="taxi54" type="car" depart="54.00">
        <route edges="711201809 711201808 546182226 750425972 546182224 481949082 655687093 655687569 750425970 750425969 651145756 652289910 652289909 506882383 165370348 696949600 1114875080 506882381 530360842 204335769 142868911 540288289 74737429#0 74737429#1 481780597 449239367 204192293 634172733 724314586 23149904 747282707 174402282 732433882 142797357 634221732 166327234 634257351 634257353 634257352 655685435 655685434 590374270 173491070"/>
    </vehicle>
    <vehicle id="taxi55" type="car" depart="55.00">
        <route edges="173491070 786126479 786126480 781961762 781961764#0 781961764#1 781961763 781984532 173491071 732433879 732433881 732433880 746646855 634152063 590331535 747290622 634722285 746646854 166327060 746646853 747282710 173010428#0 173010428#1 173488145 711187028 711187027 204192291 711187029 173010424 173010431 747282702 173488747 747282701 747290625 747290624 747290626 590331532 655809326"/>
    </vehicle>
    <vehicle id="taxi56" type="car" depart="56.00">
        <route edges="655809326 655809327 655835738 781983239 655835736#0 655835736#1 655835736#2 655835735 173490499 655835734 173490500#0 173490500#1 634211505 173010433 650044813 683277225 650044811 634225475 650044809 530353063 747290626"/>
    </vehicle>
    <vehicle id="taxi57" type="car" depart="57.00">
        <route edges="747290626 590331532 655809326"/>
    </vehicle>
    <vehicle id="taxi58" type="car" depart="58.00">
        <route edges="655809326 655809327 655835738 781983239 655835736#0 655835736#1 655835736#2 655835735 173490499 655835734 173490500#0 173490500#1 634211505 173010433 650044813 683277225 650044811 634225475 650044809 174402292#0 174402292#1 174402282 732433882 142797357 634221732 166327234 634257351 634257353 634257352 655685435 173010408#0 173010408#1"/>
    </vehicle>
    <vehicle id="taxi59" type="car" depart="59.00">
        <route edges="173010408#1 781984530 732433879 732433881 732433880 746646855 523138280 652320460 1330785127 634221732 166327234 634257351 634257353 634257352 655685435 655685434 590374270 173491070"/>
    </vehicle>
    <vehicle id="taxi60" type="car" depart="60.00">