<trips><trip id="delivery_0" type="delivery" depart="0" from="749501202#0" to="633279448" /><trip id="delivery_1" type="delivery" depart="10" from="480923439" to="167632065#0" /><trip id="delivery_2" type="delivery" depart="20" from="-643816016" to="479332224#0" /><trip id="delivery_3" type="delivery" depart="30" from="477957448#0" to="1001575699#1" /><trip id="delivery_4" type="delivery" depart="40" from="35037528" to="22921315" /><trip id="delivery_5" type="delivery" depart="50" from="749414769#1" to="688269847#0" /><trip id="delivery_6" type="delivery" depart="60" from="480890495#1" to="176298703" /><trip id="delivery_7" type="delivery" depart="70" from="747269111#1" to="478356516#1" /><trip id="delivery_8" type="delivery" depart="80" from="843404917" to="173767837#0" /><trip id="delivery_9" type="delivery" depart="90" from="624160075" to="49890802#1" /><trip id="delivery_10" type="delivery" depart="100" from="725993957" to="166311146#0" /><trip id="delivery_11" type="delivery" depart="110" from="-750875321" to="667066408" /><trip id="delivery_12" type="delivery" depart="120" from="636819937#1" to="959196429#2" /><trip id="delivery_13" type="delivery" depart="130" from="665480003" to="481615565#3" /><trip id="delivery_14" type="delivery" depart="140" from="639872238#1" to="-474280009#1" /><trip id="delivery_15" type="delivery" depart="150" from="-644406930" to="480488523#0" /><trip id="delivery_16" type="delivery" depart="160" from="173767975#1" to="635276800" /><trip id="delivery_17" type="delivery" depart="170" from="779493222#0" to="22674815" /><trip id="delivery_18" type="delivery" depart="180" from="781728499#0" to="167656816" /><trip id="delivery_19" type="delivery" depart="190" from="74731121" to="480890501#1" /><trip id="delivery_20" type="delivery" depart="200" from="173767837#0" to="641073307" /><trip id="delivery_21" type="delivery" depart="210" from="766120020" to="827193321" /><trip id="delivery_22" type="delivery" depart="220" from="22038012" to="174552518#0" /><trip id="delivery_23" type="delivery" depart="230" from="480227409#0" to="585630258#0" /><trip id="delivery_24" type="delivery" depart="240" from="667085472" to="635276800" /><trip id="delivery_25" type="delivery" depart="250" from="172904556" to="-481984211" /><trip id="delivery_26" type="delivery" depart="260" from="477957451#0" to="732247546#0" /><trip id="delivery_27" type="delivery" depart="270" from="649206042#0" to="445282984" /><trip id="delivery_28" type="delivery" depart="280" from="768474698" to="959196429#2" /><trip id="delivery_29" type="delivery" depart="290" from="474832235#0" to="-479734994#1" /><trip id="bg_855" type="car" depart="28800" from="21584507#0" to="-671560446#1" /><trip id="bg_2285" type="car" depart="28800" from="479291746" to="-633398274" /><trip id="bg_2540" type="car" depart="28803" from="482112728" to="627704614" /><trip id="bg_2690" type="car" depart="28808" from="643780145#0" to="-749414768#1" /><trip id="bg_1528" type="car" depart="28811" from="-795501187" to="479384755#0" /><trip id="bg_230" type="car" depart="28816" from="667468497#0" to="749507441" /><trip id="bg_2649" type="car" depart="28840" from="640278626#0" to="512870201" /><trip id="bg_2993" type="car" depart="28845" from="748645713" to="991889742#0" /><trip id="bg_1487" type="car" depart="28848" from="173166842#0" to="478357857#0" /><trip id="bg_1200" type="car" depart="28854" from="633345488" to="351305510#0" /><trip id="bg_1521" type="car" depart="28857" from="635584180" to="480488523#0" /><trip id="bg_1606" type="car" depart="28863" from="166311144#0" to="1369963424" /><trip id="bg_267" type="car" depart="28881" from="633325343#1" to="-640199260" /><trip id="bg_164" type="car" depart="28883" from="140398093" to="477930085#2" /><trip id="bg_1307" type="car" depart="28891" from="480923441" to="-752864925" /><trip id="bg_1981" type="car" depart="28895" from="644831721" to="638282561#1" /><trip id="bg_1800" type="car" depart="28896" from="654726970#0" to="719128254" /><trip id="bg_1797" type="car" depart="28897" from="-643767422#1" to="75589918" /><trip id="bg_123" type="car" depart="28899" from="479540202#0" to="747787064" /><trip id="bg_2718" type="car" depart="28900" from="641059898" to="667468497#0" /><trip id="bg_1973" type="car" depart="28901" from="763513329#1" to="673823142" /><trip id="bg_1532" type="car" depart="28904" from="305865019#1" to="633855526#0" /><trip id="bg_2282" type="car" depart="28905" from="190945734#1" to="627707277" /><trip id="bg_2449" type="car" depart="28906" from="766164643#0" to="643771780" /><trip id="bg_1554" type="car" depart="28913" from="1376076513" to="751470822" /><trip id="bg_2032" type="car" depart="28925" from="477957453#0" to="635298674" /><trip id="bg_981" type="car" depart="28938" from="632495826#1" to="480250098#0" /><trip id="bg_1253" type="car" depart="28944" from="-840744835#1" to="827242995" /><trip id="bg_1331" type="car" depart="28970" from="480488522#1" to="633858561#0" /><trip id="bg_1886" type="car" depart="28976" from="172904279#0" to="958438590#0" /><trip id="bg_2501" type="car" depart="28988" from="661662014" to="174552505#0" /><trip id="bg_1975" type="car" depart="28991" from="-752084776" to="22919332#0" /><trip id="bg_29" type="car" depart="28998" from="633836268" to="639117847#0" /><trip id="bg_807" type="car" depart="29000" from="174552494" to="-658073146" /><trip id="bg_382" type="car" depart="29004" from="651173807#1" to="140573036#0" /><trip id="bg_506" type="car" depart="29004" from="633311062#0" to="651196536" /><trip id="bg_874" type="car" depart="29004" from="174262763" to="459186771" /><trip id="bg_1000" type="car" depart="29024" from="639370466" to="395065443#0" /><trip id="bg_2768" type="car" depart="29029" from="751763278#0" to="665496695" /><trip id="bg_2502" type="car" depart="29034" from="127219027#0" to="649206042#0" /><trip id="bg_1026" type="car" depart="29035" from="647615471#1" to="112154494" /><trip id="bg_1175" type="car" depart="29049" from="155987123#0" to="480261293#0" /><trip id="bg_2791" type="car" depart="29057" from="747269112" to="121906570" /><trip id="bg_1984" type="car" depart="29063" from="538223034" to="-479734994#1" /><trip id="bg_523" type="car" depart="29064" from="1275950164#1" to="22920809#0" /><trip id="bg_77" type="car" depart="29068" from="176296635#0" to="429060639#0" /><trip id="bg_2402" type="car" depart="29069" from="121879126" to="538223044#1" /><trip id="bg_263" type="car" depart="29071" from="769217783" to="658073146" /><trip id="bg_2898" type="car" depart="29072" from="21584516#0" to="75592459#0" /><trip id="bg_752" type="car" depart="29080" from="1369958494" to="749526508#0" /><trip id="bg_1726" type="car" depart="29084" from="28382649#1" to="149965081#0" /><trip id="bg_2689" type="car" depart="29084" from="477957453#0" to="-1001575699#1" /><trip id="bg_2588" type="car" depart="29085" from="638103894" to="-253945337#1" /><trip id="bg_485" type="car" depart="29090" from="633182923" to="538922847" /><trip id="bg_1333" type="car" depart="29093" from="21694885#0" to="-751462776#2" /><trip id="bg_1737" type="car" depart="29095" from="-877842045" to="1369963424" /><trip id="bg_1771" type="car" depart="29108" from="170661184#0" to="585630258#1" /><trip id="bg_266" type="car" depart="29115" from="640186939" to="891134817" /><trip id="bg_799" type="car" depart="29124" from="1376076510" to="633274607#1" /><trip id="bg_102" type="car" depart="29139" from="480243155#1" to="649773813#1" /><trip id="bg_194" type="car" depart="29143" from="253945358#1" to="465269959#1" /><trip id="bg_744" type="car" depart="29145" from="766128351#0" to="763513330#1" /><trip id="bg_2137" type="car" depart="29149" from="752084776" to="-759511978" /><trip id="bg_2218" type="car" depart="29164" from="654734120#0" to="782033487" /><trip id="bg_2536" type="car" depart="29164" from="480923440" to="742058833" /><trip id="bg_2071" type="car" depart="29169" from="649785097" to="758014967#0" /><trip id="bg_545" type="car" depart="29180" from="700155307" to="155987123#0" /><trip id="bg_764" type="car" depart="29191" from="-167667597" to="184650705#1" /><trip id="bg_1273" type="car" depart="29198" from="479606959" to="638445433#1" /><trip id="bg_2907" type="car" depart="29203" from="480250099" to="654963624" /><trip id="bg_1048" type="car" depart="29204" from="637848224#0" to="1308736143" /><trip id="bg_787" type="car" depart="29209" from="173791997" to="749655975" /><trip id="bg_1063" type="car" depart="29210" from="666009278" to="639881926" /><trip id="bg_1128" type="car" depart="29225" from="766128351#0" to="479370145" /><trip id="bg_2394" type="car" depart="29225" from="638127182" to="763519452" /><trip id="bg_2663" type="car" depart="29226" from="1303467716" to="634705512" /><trip id="bg_574" type="car" depart="29227" from="480928875" to="465991197#0" /><trip id="bg_1871" type="car" depart="29231" from="22010716" to="466935883" /><trip id="bg_1987" type="car" depart="29238" from="173792001" to="176174561#1" /><trip id="bg_2688" type="car" depart="29239" from="22920148" to="633299362#0" /><trip id="bg_1386" type="car" depart="29259" from="750071184#0" to="484857214" /><trip id="bg_2339" type="car" depart="29260" from="634197848#0" to="633836268" /><trip id="bg_2270" type="car" depart="29264" from="74776957#0" to="-641078097" /><trip id="bg_553" type="car" depart="29265" from="633309567" to="150051422" /><trip id="bg_1783" type="car" depart="29267" from="465059835" to="538922854#0" /><trip id="bg_1967" type="car" depart="29267" from="351305510#0" to="667083420" /><trip id="bg_1577" type="car" depart="29273" from="666009278" to="22034471" /><trip id="bg_1204" type="car" depart="29280" from="464779332#0" to="749501204#0" /><trip id="bg_2040" type="car" depart="29283" from="718311499#0" to="747030842#0" /><trip id="bg_1286" type="car" depart="29293" from="654744961#1" to="633272252" /><trip id="bg_817" type="car" depart="29296" from="-751462760#1" to="667080057#0" /><trip id="bg_1879" type="car" depart="29300" from="22917135#0" to="725993957" /><trip id="bg_2043" type="car" depart="29305" from="-481984211" to="633283570" /><trip id="bg_1252" type="car" depart="29318" from="396336419" to="480890497#0" /><trip id="bg_2932" type="car" depart="29321" from="587053336#1" to="536908867#0" /><trip id="bg_2859" type="car" depart="29324" from="633283237" to="633283570" /><trip id="bg_1022" type="car" depart="29329" from="362500969#0" to="244842555#0" /><trip id="bg_1293" type="car" depart="29331" from="22920800" to="630441430#1" /><trip id="bg_1844" type="car" depart="29340" from="173779736#0" to="749419307#0" /><trip id="bg_1905" type="car" depart="29341" from="654764065#0" to="479291747" /><trip id="bg_1151" type="car" depart="29344" from="634817435" to="667468497#0" /><trip id="bg_1682" type="car" depart="29352" from="477957451#0" to="751462777#0" /><trip id="bg_1139" type="car" depart="29358" from="615134250#0" to="1206760204" /><trip id="bg_74" type="car" depart="29360" from="-170661183#0" to="635379903#0" /><trip id="bg_271" type="car" depart="29361" from="1331066374" to="643780374" /><trip id="bg_1104" type="car" depart="29362" from="827193321" to="74731121" /><trip id="bg_959" type="car" depart="29370" from="22919809" to="654995229" /><trip id="bg_32" type="car" depart="29384" from="-681057223" to="536908869#0" /><trip id="bg_1180" type="car" depart="29390" from="22920826" to="699927800#0" /><trip id="bg_1624" type="car" depart="29395" from="778468455" to="-836675202" /><trip id="bg_2810" type="car" depart="29399" from="632225561#1" to="538223064" /><trip id="bg_1387" type="car" depart="29402" from="23132149" to="635249622" /><trip id="bg_1289" type="car" depart="29422" from="46522831" to="766128353#1" /><trip id="bg_833" type="car" depart="29426" from="479304706#0" to="635249622" /><trip id="bg_1817" type="car" depart="29426" from="176204514#1" to="150009548#0" /><trip id="bg_878" type="car" depart="29429" from="633871920#0" to="-464207648" /><trip id="bg_497" type="car" depart="29432" from="534674930#0" to="41896553#0" /><trip id="bg_1406" type="car" depart="29436" from="190945734#0" to="633274075#0" /><trip id="bg_614" type="car" depart="29438" from="736742398#0" to="480746652#0" /><trip id="bg_1374" type="car" depart="29438" from="634187141#0" to="35037531" /><trip id="bg_2472" type="car" depart="29444" from="736742398#0" to="173166846#1" /><trip id="bg_323" type="car" depart="29445" from="996698204" to="-466004250" /><trip id="bg_2701" type="car" depart="29447" from="480890495#1" to="477930090#1" /><trip id="bg_666" type="car" depart="29452" from="477957453#0" to="74722796" /><trip id="bg_7" type="car" depart="29456" from="633306914" to="120106012#2" /><trip id="bg_2015" type="car" depart="29456" from="1029272263" to="49890814" /><trip id="bg_2374" type="car" depart="29463" from="176296635#0" to="479342613#0" /><trip id="bg_706" type="car" depart="29469" from="764068788" to="-780736527" /><trip id="bg_15" type="car" depart="29471" from="769217786" to="-665467184#1" /><trip id="bg_114" type="car" depart="29475" from="480927418" to="46529031" /><trip id="bg_581" type="car" depart="29476" from="173792002" to="479529431#0" /><trip id="bg_426" type="car" depart="29480" from="166974054#0" to="665480003" /><trip id="bg_1085" type="car" depart="29490" from="173767648#0" to="170661183#1" /><trip id="bg_1133" type="car" depart="29490" from="765879517#0" to="633311062#0" /><trip id="bg_1511" type="car" depart="29494" from="190945734#0" to="480890495#1" /><trip id="bg_1875" type="car" depart="29498" from="21815891#1" to="732229008#1" /><trip id="bg_2221" type="car" depart="29500" from="528658870#1" to="-635851163" /><trip id="bg_1432" type="car" depart="29501" from="481596164" to="663073352" /><trip id="bg_2615" type="car" depart="29514" from="649402012#0" to="480488535#0" /><trip id="bg_2836" type="car" depart="29517" from="538922856#0" to="22012983#0" /><trip id="bg_2167" type="car" depart="29520" from="-667070307" to="538922849" /><trip id="bg_2736" type="car" depart="29522" from="512918175#0" to="585630258#0" /><trip id="bg_1928" type="car" depart="29525" from="474523246" to="763513329#0" /><trip id="bg_482" type="car" depart="29542" from="747360393" to="74722800#1" /><trip id="bg_1825" type="car" depart="29555" from="751804399#0" to="656741946" /><trip id="bg_2092" type="car" depart="29562" from="632507583#0" to="769217783" /><trip id="bg_1996" type="car" depart="29569" from="-725993958" to="640177062" /><trip id="bg_163" type="car" depart="29580" from="719128254" to="651196536" /><trip id="bg_1450" type="car" depart="29586" from="-753817522" to="849812552" /><trip id="bg_1294" type="car" depart="29593" from="-766174703" to="649807912" /><trip id="bg_2405" type="car" depart="29595" from="634148758#0" to="654973851" /><trip id="bg_143" type="car" depart="29600" from="481606278#0" to="587055268#1" /><trip id="bg_965" type="car" depart="29603" from="1313402466#1" to="22034471" /><trip id="bg_2206" type="car" depart="29610" from="474832235#0" to="749507439#0" /><trip id="bg_962" type="car" depart="29611" from="1275950164#0" to="49890815#1" /><trip id="bg_106" type="car" depart="29625" from="172904277" to="654734120#0" /><trip id="bg_2850" type="car" depart="29629" from="41896553#0" to="-645135898#1" /><trip id="bg_703" type="car" depart="29630" from="640199260" to="581766308" /><trip id="bg_2640" type="car" depart="29632" from="753817520" to="479370142#2" /><trip id="bg_1399" type="car" depart="29634" from="477930090#1" to="649770884" /><trip id="bg_1759" type="car" depart="29641" from="-839233417" to="655000451#0" /><trip id="bg_610" type="car" depart="29652" from="765337433" to="465701322#0" /><trip id="bg_236" type="car" depart="29660" from="-190945733" to="474300998#0" /><trip id="bg_517" type="car" depart="29669" from="635256193" to="21669603#1" /><trip id="bg_2527" type="car" depart="29670" from="780398517" to="117042702#1" /><trip id="bg_1270" type="car" depart="29686" from="480923440" to="750875317" /><trip id="bg_2474" type="car" depart="29715" from="538223034" to="429060639#0" /><trip id="bg_73" type="car" depart="29719" from="480428604" to="532345558#0" /><trip id="bg_560" type="car" depart="29724" from="465056811#1" to="763525864" /><trip id="bg_1010" type="car" depart="29726" from="-464207648" to="630387759#0" /><trip id="bg_2320" type="car" depart="29728" from="49890815#1" to="477930091" /><trip id="bg_718" type="car" depart="29729" from="22038012" to="538922849" /><trip id="bg_1932" type="car" depart="29751" from="687958772" to="654758971" /><trip id="bg_891" type="car" depart="29756" from="173779730" to="21940400#0" /><trip id="bg_2820" type="car" depart="29757" from="660087584#1" to="75561429#0" /><trip id="bg_2918" type="car" depart="29765" from="445282984" to="745297577#0" /><trip id="bg_264" type="car" depart="29767" from="647087569" to="-1013499434#1" /><trip id="bg_415" type="car" depart="29767" from="658073146" to="654963624" /><trip id="bg_853" type="car" depart="29776" from="480227403" to="474301017#0" /><trip id="bg_684" type="car" depart="29782" from="480744752" to="1313402466#0" /><trip id="bg_1571" type="car" depart="29782" from="41896555#1" to="627703714" /><trip id="bg_1421" type="car" depart="29786" from="536908872" to="1013499433" /><trip id="bg_2575" type="car" depart="29787" from="-667075007" to="633299362#0" /><trip id="bg_2291" type="car" depart="29791" from="1376076509" to="463526658#0" /><trip id="bg_534" type="car" depart="29792" from="758014964#0" to="641073307" /><trip id="bg_1061" type="car" depart="29795" from="1013499433" to="480488524#1" /><trip id="bg_2739" type="car" depart="29803" from="640199259" to="632507583#0" /><trip id="bg_2901" type="car" depart="29809" from="167656816" to="477915672#0" /><trip id="bg_6" type="car" depart="29827" from="480488531#0" to="465269957#1" /><trip id="bg_816" type="car" depart="29835" from="649402012#0" to="479616313" /><trip id="bg_1201" type="car" depart="29837" from="459186769#0" to="633309567" /><trip id="bg_561" type="car" depart="29839" from="634832601" to="634197848#0" /><trip id="bg_973" type="car" depart="29843" from="639854771#0" to="479332225#0" /><trip id="bg_1925" type="car" depart="29843" from="184786263#1" to="112154494" /><trip id="bg_719" type="car" depart="29857" from="459186758#0" to="654860384#0" /><trip id="bg_1687" type="car" depart="29858" from="184785166#0" to="634147403#0" /><trip id="bg_2444" type="car" depart="29872" from="479384753#0" to="666006042" /><trip id="bg_2780" type="car" depart="29875" from="-839233417" to="-1169313728" /><trip id="bg_359" type="car" depart="29877" from="173767648#0" to="781974021" /><trip id="bg_820" type="car" depart="29879" from="-1168434377" to="745710907#0" /><trip id="bg_2782" type="car" depart="29882" from="711732019" to="74948598" /><trip id="bg_2159" type="car" depart="29883" from="824865960" to="22919332#0" /><trip id="bg_1195" type="car" depart="29886" from="174262765#0" to="479332226#0" /><trip id="bg_1970" type="car" depart="29888" from="762801886" to="22920149#0" /><trip id="bg_2738" type="car" depart="29905" from="684524081" to="1303467108" /><trip id="bg_244" type="car" depart="29920" from="633274075#0" to="639117847#0" /><trip id="bg_774" type="car" depart="29920" from="535030453" to="395058738" /><trip id="bg_2323" type="car" depart="29922" from="649770884" to="75112027" /><trip id="bg_2410" type="car" depart="29923" from="667114087" to="655000451#0" /><trip id="bg_2095" type="car" depart="29924" from="661367199#0" to="765279424#0" /><trip id="bg_1051" type="car" depart="29929" from="-959196429#6" to="21701074#1" /><trip id="bg_1885" type="car" depart="29942" from="172274257#0" to="-643767422#1" /><trip id="bg_1892" type="car" depart="29943" from="651983305" to="173767590#0" /><trip id="bg_407" type="car" depart="29964" from="833778873" to="711732013#0" /><trip id="bg_2485" type="car" depart="29967" from="481606278#0" to="996698203" /><trip id="bg_2716" type="car" depart="29992" from="665472679#0" to="769217783" /><trip id="bg_1811" type="car" depart="29998" from="633855526#0" to="643805671" /><trip id="bg_1395" type="car" depart="29999" from="480243155#1" to="-667352597" /><trip id="bg_1720" type="car" depart="30001" from="751767497#0" to="479304705" /><trip id="bg_2143" type="car" depart="30011" from="778468456" to="479565612#0" /><trip id="bg_1915" type="car" depart="30012" from="459186758#2" to="1083770146" /><trip id="bg_730" type="car" depart="30025" from="637848224#0" to="477957453#0" /><trip id="bg_2703" type="car" depart="30026" from="639370466" to="676479279#0" /><trip id="bg_2047" type="car" depart="30028" from="665480003" to="21701080#0" /><trip id="bg_2864" type="car" depart="30032" from="465056811#1" to="635497408#1" /><trip id="bg_2972" type="car" depart="30040" from="669873336#0" to="23132149" /><trip id="bg_794" type="car" depart="30041" from="480923440" to="747792288" /><trip id="bg_1473" type="car" depart="30046" from="121879126" to="633279448" /><trip id="bg_951" type="car" depart="30047" from="538922850" to="849812550" /><trip id="bg_1266" type="car" depart="30049" from="46595131#2" to="22920826" /><trip id="bg_252" type="car" depart="30052" from="170661183#1" to="639936518#0" /><trip id="bg_1719" type="car" depart="30056" from="173792001" to="747875237" /><trip id="bg_519" type="car" depart="30058" from="534674930#0" to="167656816" /><trip id="bg_223" type="car" depart="30062" from="173767571#0" to="48035389#1" /><trip id="bg_1993" type="car" depart="30063" from="21581835#1" to="-636701496" /><trip id="bg_2401" type="car" depart="30070" from="640199031#0" to="753925020#0" /><trip id="bg_2120" type="car" depart="30073" from="480919513#2" to="22034474#1" /><trip id="bg_184" type="car" depart="30091" from="22920148" to="654963620#0" /><trip id="bg_2713" type="car" depart="30095" from="244916481#0" to="-479734994#1" /><trip id="bg_1208" type="car" depart="30100" from="749526509" to="1118210398#0" /><trip id="bg_1244" type="car" depart="30119" from="763525865" to="1280746587" /><trip id="bg_950" type="car" depart="30120" from="667112401" to="45070962" /><trip id="bg_2228" type="car" depart="30135" from="633281458" to="633328387" /><trip id="bg_2358" type="car" depart="30139" from="459186767#1" to="49891073" /><trip id="bg_2432" type="car" depart="30155" from="474300974" to="632788542" /><trip id="bg_1781" type="car" depart="30160" from="448084961" to="127219027#1" /><trip id="bg_1221" type="car" depart="30162" from="35037531" to="481650999" /><trip id="bg_2530" type="car" depart="30162" from="477933142" to="173791997" /><trip id="bg_1674" type="car" depart="30216" from="21701084" to="479384755#0" /><trip id="bg_1298" type="car" depart="30219" from="396336419" to="173791999" /><trip id="bg_1968" type="car" depart="30221" from="-836674597" to="75112027" /><trip id="bg_2260" type="car" depart="30237" from="383365019" to="661671265" /><trip id="bg_2163" type="car" depart="30240" from="749414766" to="751813850" /><trip id="bg_728" type="car" depart="30246" from="630441430#1" to="633283237" /><trip id="bg_2467" type="car" depart="30248" from="651196536" to="751767497#0" /><trip id="bg_612" type="car" depart="30254" from="751767493" to="21560685" /><trip id="bg_1003" type="car" depart="30262" from="149965081#0" to="22034474#1" /><trip id="bg_2564" type="car" depart="30265" from="-766171288" to="646661851" /><trip id="bg_196" type="car" depart="30266" from="480227409#0" to="667066406" /><trip id="bg_2380" type="car" depart="30270" from="173166848#1" to="477930084" /><trip id="bg_187" type="car" depart="30271" from="587053336#1" to="538922850" /><trip id="bg_1841" type="car" depart="30274" from="465056817" to="22917135#0" /><trip id="bg_2103" type="car" depart="30284" from="176298701" to="481632583" /><trip id="bg_1449" type="car" depart="30305" from="634705512" to="474301021#0" /><trip id="bg_866" type="car" depart="30306" from="22002585" to="830581721#0" /><trip id="bg_1506" type="car" depart="30306" from="839225098" to="633313291" /><trip id="bg_2495" type="car" depart="30330" from="534985185#1" to="83145747#1" /><trip id="bg_2764" type="car" depart="30335" from="21584516#0" to="1029272262" /><trip id="bg_1710" type="car" depart="30336" from="173767837#0" to="22811145#0" /><trip id="bg_1646" type="car" depart="30347" from="174262765#0" to="475075260#2" /><trip id="bg_2029" type="car" depart="30349" from="633309567" to="480243155#1" /><trip id="bg_2856" type="car" depart="30350" from="676705143" to="35037531" /><trip id="bg_1856" type="car" depart="30355" from="166974054#0" to="654996884" /><trip id="bg_1831" type="car" depart="30357" from="41896553#0" to="765337433" /><trip id="bg_2182" type="car" depart="30369" from="479616313" to="21581835#1" /><trip id="bg_788" type="car" depart="30374" from="1303467108" to="538922854#0" /><trip id="bg_1913" type="car" depart="30375" from="-959196429#6" to="656719472" /><trip id="bg_107" type="car" depart="30379" from="-667067670#1" to="477930090#1" /><trip id="bg_1630" type="car" depart="30381" from="700155307" to="172904556" /><trip id="bg_588" type="car" depart="30382" from="477930090#2" to="21702431#0" /><trip id="bg_876" type="car" depart="30385" from="-637899263#1" to="671560446#0" /><trip id="bg_454" type="car" depart="30397" from="535053161#0" to="635276800" /><trip id="bg_1594" type="car" depart="30400" from="459186761#1" to="481675642#0" /><trip id="bg_455" type="car" depart="30402" from="633295966" to="668391408" /><trip id="bg_1721" type="car" depart="30404" from="411890820#0" to="174552494" /><trip id="bg_845" type="car" depart="30411" from="395058738" to="633313289" /><trip id="bg_949" type="car" depart="30413" from="22034474#1" to="-1015882723" /><trip id="bg_2373" type="car" depart="30420" from="480231139#0" to="632788542" /><trip id="bg_1880" type="car" depart="30427" from="749501202#0" to="459186771" /><trip id="bg_2626" type="car" depart="30428" from="636937879" to="-190945733" /><trip id="bg_785" type="car" depart="30442" from="244842557#0" to="479529431#0" /><trip id="bg_1132" type="car" depart="30444" from="22012988" to="-641073304" /><trip id="bg_456" type="car" depart="30445" from="21581831#1" to="479332227" /><trip id="bg_1828" type="car" depart="30445" from="725993957" to="32489943" /><trip id="bg_1851" type="car" depart="30457" from="891134817" to="640199260" /><trip id="bg_1178" type="car" depart="30468" from="725993958" to="779493222#0" /><trip id="bg_2500" type="car" depart="30472" from="127219027#1" to="782033487" /><trip id="bg_502" type="car" depart="30478" from="747360393" to="724572178" /><trip id="bg_547" type="car" depart="30479" from="667104051" to="-749419306#1" /><trip id="bg_894" type="car" depart="30480" from="46538133" to="32507194" /><trip id="bg_952" type="car" depart="30483" from="661922136" to="778755445" /><trip id="bg_1429" type="car" depart="30485" from="-676705881#1" to="710255082-AddedOnRampEdge" /><trip id="bg_1441" type="car" depart="30492" from="630437927#0" to="690649004#1" /><trip id="bg_2149" type="car" depart="30496" from="538922855#0" to="480488523#0" /><trip id="bg_701" type="car" depart="30497" from="634705512" to="633340452" /><trip id="bg_124" type="car" depart="30505" from="651173807#1" to="479370142#2" /><trip id="bg_1688" type="car" depart="30509" from="121879139#0" to="479529434#1" /><trip id="bg_2066" type="car" depart="30511" from="538922856#0" to="-641078097" /><trip id="bg_1477" type="car" depart="30513" from="782910209" to="156566851#0" /><trip id="bg_2061" type="car" depart="30518" from="21573273#2" to="538922857#0" /><trip id="bg_2522" type="car" depart="30523" from="34878596#0" to="671560446#0" /><trip id="bg_530" type="car" depart="30525" from="787009913" to="718311499#0" /><trip id="bg_1629" type="car" depart="30530" from="747787065#2" to="532341007" /><trip id="bg_1058" type="car" depart="30532" from="395065443#0" to="-749419306#1" /><trip id="bg_2985" type="car" depart="30535" from="581942152#0" to="481040696" /><trip id="bg_1371" type="car" depart="30536" from="-643769203#1" to="633213700" /><trip id="bg_2747" type="car" depart="30552" from="536908871" to="538922856#0" /><trip id="bg_2441" type="car" depart="30559" from="46538133" to="824508775" /><trip id="bg_2528" type="car" depart="30561" from="121879133" to="83145747#1" /><trip id="bg_633" type="car" depart="30563" from="877842047" to="22920802#1" /><trip id="bg_2118" type="car" depart="30586" from="634147399" to="1081680269#3" /><trip id="bg_25" type="car" depart="30594" from="751804394#0" to="156566851#0" /><trip id="bg_2700" type="car" depart="30621" from="21816861" to="661928080#0" /><trip id="bg_1285" type="car" depart="30622" from="75538366#0" to="711732013#0" /><trip id="bg_2622" type="car" depart="30627" from="654764065#0" to="155096471" /><trip id="bg_2105" type="car" depart="30631" from="1081680268#1" to="21702431#0" /><trip id="bg_1069" type="car" depart="30632" from="395058740" to="747280759" /><trip id="bg_2128" type="car" depart="30646" from="654744791" to="515113758#1" /><trip id="bg_1711" type="car" depart="30650" from="632763143#0" to="479337907" /><trip id="bg_1011" type="car" depart="30651" from="1013499432" to="480488531#0" /><trip id="bg_210" type="car" depart="30654" from="725993955#1" to="480488522#1" /><trip id="bg_773" type="car" depart="30659" from="635626258#0" to="1000460220" /><trip id="bg_698" type="car" depart="30663" from="173166846#1" to="-1001575699#1" /><trip id="bg_1762" type="car" depart="30667" from="140573032#0" to="176174561#1" /><trip id="bg_2125" type="car" depart="30668" from="117042702#1" to="667067672" /><trip id="bg_793" type="car" depart="30676" from="46522852#0" to="639034134" /><trip id="bg_344" type="car" depart="30679" from="536908872" to="783843566#0" /><trip id="bg_1884" type="car" depart="30679" from="751462767" to="638100591" /><trip id="bg_622" type="car" depart="30689" from="763010996" to="480919513