<routes xmlns:xsi="http://www.w3.org/2001/XMLSchema-instance" xsi:noNamespaceSchemaLocation="http://sumo.dlr.de/xsd/routes_file.xsd">
    <vType id="delivery" length="6.00" minGap="2.50" maxSpeed="60.00" guiShape="truck" accel="1.5" decel="4.0" sigma="0.5" />
    <vType id="car" length="5.00" minGap="2.50" maxSpeed="70.00" guiShape="passenger" accel="2.6" decel="4.5" sigma="0.5" />
    </routes>