<?xml version="1.0" encoding="UTF-8"?>

<!-- generated on 2025-07-22 13:14:52 by Eclipse SUMO duarouter Version 1.23.1
<duarouterConfiguration xmlns:xsi="http://www.w3.org/2001/XMLSchema-instance" xsi:noNamespaceSchemaLocation="http://sumo.dlr.de/xsd/duarouterConfiguration.xsd">

    <input>
        <net-file value="data/raw/sumo/cbd/cbd.net.xml"/>
        <additional-files value="data/raw/sumo/cbd\types.add.xml"/>
        <route-files value="data/raw/sumo/cbd/cbd.weather_adjusted.trips.xml"/>
    </input>

    <output>
        <output-file value="data/raw/sumo/cbd/cbd.weather_adjusted.rou.xml"/>
    </output>

    <report>
        <ignore-errors value="true"/>
    </report>

</duarouterConfiguration>
-->

<routes xmlns:xsi="http://www.w3.org/2001/XMLSchema-instance" xsi:noNamespaceSchemaLocation="http://sumo.dlr.de/xsd/routes_file.xsd">
    <vType id="delivery" length="6.00" minGap="2.50" maxSpeed="60.00" guiShape="truck" accel="1.5" decel="4.0" sigma="0.5"/>
    <vehicle id="delivery735" type="delivery" depart="28813.00">
        <route edges="121879133 836283376 654963620#0 654963624 173767975#1 762766312 484857214 480746650 112154494 9590561#1 782910209 480876258 654860384#0 654860384#1 535030447 654860379#0 535030470 149965081#0 23126207 780421437 23126209#1 639034134 747792288 477933142 663073352 75486815 22921960#0 827242995 1313410360 49890791#0 636937879 479332227 787040678 479365739 528658872#0 649136603 849812552"/>
    </vehicle>
    <vehicle id="delivery524" type="delivery" depart="28819.00">
        <route edges="21816861 667066406 667066408 644332435#1 475075260#2 479734995#0 630438074#1 749656420#1 670651564 634197848#0 176204514#1 634152052 651983305 351305508 633283570 634817435 176204513#1 75120042#2 649396367#1 74722800#1 1369958494 1376076513 1376076508 1376076512#0 635253783 150396839 763519453 477796390"/>
    </vehicle>
    <vehicle id="delivery939" type="delivery" depart="28828.00">
        <route edges="21581831#1 21573273#0 21573273#2 480250096 173779754#0 21584516#0 75523984 173767590#0 459186770 74731114 581766308 750071184#0 21998987#0 635390734#0 35037537#2 173779732#1 22919331#0 22919331#1 670664313#0 479342620#0 654996884 747823928 763010994#0 479342618#0 459186763#0 22323516#0 74735250 22921959 747041623 1029272263 1112431504 710255082-AddedOnRampEdge 710255082 763010993 459186764#0 479384755#0 749501204#0 479378257#1"/>
    </vehicle>
    <vehicle id="delivery834" type="delivery" depart="28869.00">
        <route edges="21581835#0 21581835#1 747875237 21584500#1 155907160 480250096 173779754#0 21584516#0 75523984 173767590#0 763525864 763525863 21701074#1 21701080#0 97667945#0 176298703 634705512 748668448 639370466 480227403"/>
    </vehicle>
    <vehicle id="delivery756" type="delivery" depart="28897.00">
        <route edges="190945770#0 711177873 190945738#0 190945734#1 641560136 748657115 633296686 126016651#1 174407832#1 633800291 480488522#1 480488523#0 176174562#1 637899263#1"/>
    </vehicle>
    <vehicle id="delivery674" type="delivery" depart="28914.00">
        <route edges="-667082792 -480488530#1 587053336#1 481656720#0 465269959#1 654999428 638282561#1 745710910#0 479734993#1 673823142 636819937#1 654758971 636825832#1 465269958 465269957#1 742058833 654764065#0 174035888 763010996 459186772#0 459186770 74731114 581766308 750071184#0 21998987#0 635390734#0 35037537#2 173779732#1 22919331#0 22919331#1 670664313#0 479342620#0 654996884 747823928 763010994#0 479342618#0 459186763#0 22323516#0 74735250 253945337#1 -671240471#1 959196429#2"/>
    </vehicle>
    <vehicle id="delivery278" type="delivery" depart="28939.00">
        <route edges="150045533#1 515113759#1 1081680268#1 1081680267#1 633325343#1 1112431504 710255082-AddedOnRampEdge 710255082 763010993 459186764#0 479384753#0 173791999 633270302 512918175#0 546697871#0 633279448 22920800 704818191 633279447#0 776435575 23125723 736742398#0 538922856#0 633283237 176296635#0 459186755#0 459186755#1 173166872"/>
    </vehicle>
    <vehicle id="delivery943" type="delivery" depart="28954.00">
        <route edges="639406147 481632583 465056806#0 465056817 481615565#0 481615565#1 481615565#2 481615565#3 751804397#0 22019830 751804394#0 536908871 75589915 481040694 826805718 747269112 532341007 173713417 661662014 719128254 826805719 481040696 633150695 536908872"/>
    </vehicle>
    <vehicle id="delivery565" type="delivery" depart="28971.00">
        <route edges="465701322#0 480919512 480919513#0 480919513#2 477957453#0 765279426 765279424#0 174552495 477957456 587055769#1 23126207 780421437 633182923 478357857#0 21998983#1 747280760 829515509 477930090#1 477930090#2 477930091 1035164362 614162714#0 465056811#1 254344606 749978195 847874140 459186766 538922841 459186765#0 22002585"/>
    </vehicle>
    <vehicle id="delivery831" type="delivery" depart="28994.00">
        <route edges="643780374 -839233417 -836675202 -778170822 665496695 836675437 538922847 22012988 465056817 481615565#0 481615565#1 481615565#2 481615565#3 751804397#0 -647087534 -665507932"/>
    </vehicle>
    <vehicle id="delivery470" type="delivery" depart="28998.00">
        <route edges="43826730 670121251 1013499433 1013499434#0 749501203#0 479384753#0 173791994#1 633281458 173767571#0"/>
    </vehicle>
    <vehicle id="delivery357" type="delivery" depart="29003.00">
        <route edges="635253783 150396839 763519453 477796390 634339310#0 121906570 734706139 21697558 463526658#0 74731121 176298701 21694885#0 480231136#1 174407832#1 633800291 480488522#1 480488523#0 176204514#1 634152052"/>
    </vehicle>
    <vehicle id="delivery51" type="delivery" depart="29005.00">
        <route edges="-725993958 -633313291 -253945337#1 253945337#1 633313291 -1000460220 725993957 635249622 635249621 479370145 1030320617#0 477930084 786486163 725993955#1 140573032#0 477930085#2 633369736 633369730#1 661925617 747280759 633175175#1 639368623 75589918 667358895 649489756 787027492 651173807#1 22034474#1 174552500 649123366 477957450#0 477957451#0 765914084 480876260#0 480257499 167632063 38533985 745352145 38533986 587054605#1 173767648#0 656792746 654973851 836283375 121879139#0 834594330 830581722 830581721#0 780089097"/>
    </vehicle>
    <vehicle id="delivery300" type="delivery" depart="29010.00">
        <route edges="478356516#0 478356516#1 759540690#1 633296735#0 633296735#1 478355846#1 74619446#0 478356517 21567404 474639288#0 75538367 479616017 633855526#0 633855526#1 75538366#0 654723454#1 633266894#2 779493222#0 21665446#1 630438074#1 749656420#1 670651564 634197848#0 176204514#1 634152052 651983305 351305508 633283570 634817435"/>
    </vehicle>
    <vehicle id="delivery812" type="delivery" depart="29052.00">
        <route edges="459186767#1 738108625#1 747288345#0 479529434#1 43826730 670121251 1013499433"/>
    </vehicle>
    <vehicle id="delivery636" type="delivery" depart="29100.00">
        <route edges="479565612#0 764062390 479565613 479605911 16688065 459186771 51511350#1 173767773 639651058 639651059 633846400 649550324 126016651#1 633836269 480250099 633836268 480252899 746630881#1 480231138#1 176204486#1 1275950165#0 649206042#0 396336419 585630258#0 585630258#1 481649583#1"/>
    </vehicle>
    <vehicle id="delivery803" type="delivery" depart="29110.00">
        <route edges="635298674 656741946 654869749 836283376 654963620#0 654963624 173767975#1 762766312 484857214 480746650 112154494 9590561#1 782910209 480876258 654860384#0 654860384#1 535030447 654860379#0 535030470 149965081#0 23126207 780421437 633182923 478357857#0 21998983#1 747280760 829515509 477930090#1 477930090#2 477930091 1035164362 614162714#0 465056811#1"/>
    </vehicle>
    <vehicle id="delivery634" type="delivery" depart="29117.00">
        <route edges="429060639#0 1280746587 1081680269#1 1081680269#3 1081680268#1 479370142#2 635249621 479370145 1030320617#0 477930084 786486163 725993955#1 140573032#0 477930085#2 633369736 633369730#1 661925617 747280759 633175175#1 639368623 747269111#1 633249350 480921267 480921268 764109815 996698202"/>
    </vehicle>
    <vehicle id="delivery639" type="delivery" depart="29122.00">
        <route edges="627680954#1 480231139#0 775168788#1 480488522#1 480488523#0 176174562#1 480488524#1 649530135#0 786104793#1 480488526 654995230#1 654995229 661946312#1 632225561#1 75557738#1 481651000#0 649338096 654877041 74776957#0 474301018#2 474301019#0 1313403784"/>
    </vehicle>
    <vehicle id="delivery474" type="delivery" depart="29125.00">
        <route edges="479332225#0 634751407#0 634751407#1 173779730 528539591#0 528539591#1 459186769#0 459186769#1 16688065 459186771 51511350#1 173767773 639651058 639651059 633846400 649550324 126016651#1 633836269 480250099 633836268 480252899 746630881#1 480231138#1 176204486#1 1275950165#0 649206042#0"/>
    </vehicle>
    <vehicle id="delivery616" type="delivery" depart="29125.00">
        <route edges="787009451 641059898 474301013#0 223868462#0 223868462#1 661367199#0 34878597#0 474300998#0 75551640 649770884 112154347#0 635298674 656741946 654869749 836283376 654963620#0 654963624 173767975#1 762766312 484857214 480746650 112154494 9590561#1 782910209 480876258 654860384#0 654860384#1 535030447 654860379#0 535030470 149965081#0 23126207 780421437 23126209#1 639034134 747792288 477933142 663073352 75486815 22921960#0 827242995 459186763#0 22323516#0 74735250 253945337#1 633313291 -1000460220 725993957 635249622 1001575699#1 515113759#1 1081680268#1"/>
    </vehicle>
    <vehicle id="delivery873" type="delivery" depart="29142.00">
        <route edges="834594330 830581722 830581721#0 780089097 41896553#0 34878742#1 783843567#0 481673127#0 630387759#0 632743072 532406002 769217786"/>
    </vehicle>
    <vehicle id="delivery325" type="delivery" depart="29147.00">
        <route edges="-836675202 -778170822 665496695 836675437 538922847 22012988 465056817 481615565#0 481615565#1 481615565#2 481615565#3 751804397#0 22019830 751804394#0 536908871 75589915 481040694 826805718 747269112 536908874#0 75589918 667358895 649489756 787027492 651173807#1 22034474#1 174552500 649123366 477957450#0 477957451#0 765914084 480876260#0 480257499 167632063 38533985 745352145 38533986 587054605#1 173767648#0"/>
    </vehicle>
    <vehicle id="delivery56" type="delivery" depart="29159.00">
        <route edges="763514664#1 676705143 763513330#1 763513329#0 763513329#1 635341764 849812552 150009548#0 305865019#1 1009348662#0 1010903479 1081680269#1 1081680269#3 1081680268#1 1081680267#1 633325343#1 1112431504 710255082-AddedOnRampEdge 710255082 763010993 459186764#0 479384755#0 749501204#0 479378257#1 538922839 749501202#0 -635851163 639406147 481632583 825214128#0 825214127 -639856237 665722912"/>
    </vehicle>
    <vehicle id="delivery859" type="delivery" depart="29181.00">
        <route edges="633299362#0 633299362#1 21573270#0 732247546#0 21581831#1 411890820#0 411890820#1 155907163#0 155907163#1 634187141#0 480890501#1 762783531#0 633858561#0 633306762#1 634148758#0 22022182 35037531 480923439 480923440 749526508#0 749526509 269909065 649763835 174552494"/>
    </vehicle>
    <vehicle id="delivery661" type="delivery" depart="29209.00">
        <route edges="665461373#0 176296632 459186762 459186761#1 633281453#0 633281458 173767571#0 22002585 690187435#0 661922136 747038521 776656803#1 477930086#1 747360393 173791998 173960125 633306914 479332223 479332224#0 649807912 635276800 479332225#0 634751407#0 634751407#1 173779730 528539591#0 528539591#1 459186769#0 459186769#1 16688065 459186771 51511350#1 173767773 639651058 639651059 633846400 649550324 126016651#1 633836269 480250099 633836268 480252899 74722798#1"/>
    </vehicle>
    <vehicle id="delivery975" type="delivery" depart="29214.00">
        <route edges="479370145 1030320617#0 477930084 786486163 725993955#1 140573032#0 477930086#1 747360393 173791998 173960125 633306914 479332223 479332224#0 649807912 635276800 479332225#0 634751407#0 634751407#1 173779730 528539591#0 528539591#1 459186769#0 459186769#1 51511339 1303467716 156457347 750071183#0 51511337#1 173779755#0 633276626 21665446#1 630438074#1 749656420#1 480890497#0 633267524"/>
    </vehicle>
    <vehicle id="delivery98" type="delivery" depart="29276.00">
        <route edges="665257562 839225098 747288345#0 776656803#1 477930085#2 633369736 633369730#1 661925617 747280759 633175175#1 639368623 75589918 667358895 649489756 787027492 651173807#1 22034474#1 174552500 649123366 477957450#0 477957451#0 765914084 480876260#0 480257499"/>
    </vehicle>
    <vehicle id="delivery294" type="delivery" depart="29280.00">
        <route edges="1376076513 1376076508 1376076512#0 635253783 150396839 763519453 477796390 763519452 639682610 649139513#1 764085143#0 528658870#1 49890802#1 23036524#1 764085141 256427237#0 765337433"/>
    </vehicle>
    <vehicle id="delivery646" type="delivery" depart="29299.00">
        <route edges="22323516#0 140573032#0 477930086#1 747360393 173791998 173960125 633306914 479332223 479332224#0 649807912 635276800 479332225#0 634751407#0 634751407#1"/>
    </vehicle>
    <vehicle id="delivery941" type="delivery" depart="29319.00">
        <route edges="174552505#0 49891073 477957449 651173807#1 22034474#1 174552500 649123366 477957450#0 477957451#0 765914084 480876260#0 480257499 167632063 38533985 745352145 9588130#0 643771780"/>
    </vehicle>
    <vehicle id="delivery296" type="delivery" depart="29327.00">
        <route edges="21560688#0 654214427 538223034 638100591 75141905#1 74722796 656719472 746630881#1 480231138#1 630441430#1 480231140#1 351305510#0 480890495#1 480890498#0 661671265 647615471#1 21567384#1 480890499#0 480890501#1 762783531#0 633858561#0 633306762#1 634148758#0 22022182 35037531 480923439 480923440 749526508#0 749526509 480890502 535030470 149965081#0 23126207 780421437 633182923 478357857#0 21998983#1 747280760 829515509 477930090#1 477930090#2 477930091 1035164362 614162714#0 465056817"/>
    </vehicle>
    <vehicle id="delivery188" type="delivery" depart="29349.00">
        <route edges="751470821 751470819 22920826 22034471 445282984 23126209#1 639034134 747792288 477933142 663073352 75486815 22921960#0 173791998 173960125 633306914 479332223 479332224#0 649807912 649059109 633398275#2 479332226#0 798221355"/>
    </vehicle>
    <vehicle id="delivery430" type="delivery" depart="29394.00">
        <route edges="782299957 782299956 34878741#0 223868462#0 223868462#1 661367199#0 34878597#0 474300998#0 75551640 649770884 112154347#0 635298674 656741946 654869749 836283376 654963620#0 654963624 173767975#1 762766312 484857214 480746650 112154494 9590561#1 782910209 480876258 654860384#0 654860384#1 535030447 654860379#0 535030470 480928875 749507440 749507441 840111936 633149629 536908873#1 173713417 661662014 719128254 826805719 481040696 633150695 174554431"/>
    </vehicle>
    <vehicle id="delivery767" type="delivery" depart="29431.00">
        <route edges="958438590#0 1081680268#1 479370142#2 635249621 479370145 1030320617#0 477930084 786486163 725993955#1 140573032#0 477930085#2 633369736 633369730#1 661925617 639855804 639861526 172904556"/>
    </vehicle>
    <vehicle id="delivery814" type="delivery" depart="29459.00">
        <route edges="-667070844#1 -156566851#1 156566851#0 667070844#0 630437927#0 630439201#1 75117647#0 630441430#1 480231140#1 351305510#0 636819937#1 654758971 636825832#1 465269958 465269957#1 742058833 654764065#0 174035888 763010996 459186772#0 459186770 74731114 581766308 750071184#0 21998987#0 635390734#0 35037537#2 173779732#1 22919331#0 22919331#1 670664313#0 479342620#0 654996884 747823928 763010994#0 479342618#0 459186763#0 22323516#0 74735250 253945337#1 633313291 -1000460220 725993957 635249622"/>
    </vehicle>
    <vehicle id="delivery533" type="delivery" depart="29468.00">
        <route edges="585630258#0 585630258#1 481649583#1 699952025 481650999 465269959#1 654999428 638282561#1 745710910#0 479734993#1 673823142 636819937#1 654758971 636825832#1 465269958 633836269 480250099 633836268 667085476#0 667085472 480231139#0 775168788#1"/>
    </vehicle>
    <vehicle id="delivery901" type="delivery" depart="29472.00">
        <route edges="654995230#1 654995229 661946312#1 632225561#1 173166846#1 661370852 475075260#2 479734995#0 779487588#1 633275660 763525865 75523984 173767590#0 763525864 763525863 21701074#1 75067163#0 173791997 633871920#0 479540202#0 174262771#1 83145747#1 763513331 479284867#0 687958772"/>
    </vehicle>
    <vehicle id="delivery322" type="delivery" depart="29477.00">
        <route edges="830581722 830581721#0 780089097 41896553#0 34878742#1 783843567#0 481673127#0 223868462#0 223868462#1 661367199#0 34878597#0 474300998#0 75551640 649770884 112154347#0 635298674 656741946 654869749 836283376 654963620#0 654963624 173767975#1 762766312 484857214 480746650 112154494 9590561#1 782910209 480876258 654860384#0 654860384#1 535030447 654860379#0 535030470 149965081#0 23126207 780421437 633182923 478357857#0 21998983#1 747280760 829515509 477930090#1 477930090#2 477930091 1035164362 614162714#0 465056811#1 254344606 481632578 712180888 -652540798 -465063443 465059835 -465059835 465063443"/>
    </vehicle>
    <vehicle id="delivery897" type="delivery" depart="29548.00">
        <route edges="747787065#2 747798873#0 477957448#0 633295966 22034471 49891073 477957449 651173807#1 22034474#1 174552500 649123366 477957450#0 670350817 480919513#0 480919513#2 477957453#0 758014967#0"/>
    </vehicle>
    <vehicle id="delivery220" type="delivery" depart="29597.00">
        <route edges="751462767 -780736527 766800092 -667082792 -480488530#1 587053336#1 481656720#0 465269959#1 654999428 638282561#1 745710910#0 479734993#1 673823142 636819937#1 654758971 636825832#1 465269958 465269957#1 742058833 654764065#0 174035888 763010996 459186772#0 459186770 74731114 581766308 750071184#0 21998987#0 635390734#0 35037537#2 173779732#1 22919331#0 22919331#1 670664313#0 479342620#0 654996884 747823928 763010994#0 479342618#0 459186763#0 22323516#0 140573032#0 477930086#1 747360393 173791998 173960125 633306914 479332223 479332224#0 649807912 649059109 633398275#2"/>
    </vehicle>
    <vehicle id="delivery623" type="delivery" depart="29617.00">
        <route edges="21584516#0 75523984 173767590#0 459186770 74731114 581766308 750071184#0 21998987#0 635390734#0 35037537#2 173779732#1 22919331#0 22919331#1 670664313#0 479342620#0 654996884 747823928 763010994#0 479342618#0 459186763#0 22323516#0 74735250 22921959 747041623 1029272262 22920149#0 479529431#0"/>
    </vehicle>
    <vehicle id="delivery134" type="delivery" depart="29633.00">
        <route edges="635584180 244916481#0 477913763 477915672#0 253945325 477915673#0 764085143#0 528658870#1 49890802#1 23036524#1 764085141 477930084 786486163 725993955#1 140573032#0 477930086#1 747360393 173791998 173960125 633306914 479332223 479332224#0 649807912 635276800 479332225#0 634751407#0 634751407#1 173779730 528539591#0 528539591#1 459186769#0 459186769#1 51511339 1303467716 156457347 750071183#0 51511337#1 173779755#0 633276626 780398522 465064163#1 479602347 127219027#0 127219027#1 632464061#0"/>
    </vehicle>
    <vehicle id="delivery45" type="delivery" depart="29644.00">
        <route edges="-170661183#0 170661184#0 649338096 654877041 74776957#0 21940400#0 888048852 74559749#1 75551640 649770884 112154347#0 635298674 656741946 654869749 836283376 654963620#0 654963624 632495826#1 633265315 665776852 877842045 -877842045"/>
    </vehicle>
    <vehicle id="delivery620" type="delivery" depart="29653.00">
        <route edges="127219021 654731786#0 479734995#0 647615471#1 21567384#1 480890499#0 480890501#1 762783531#0 633858561#0 633306762#1 634148758#0 587055268#1 535030453 633272252 536908876 764068788 587054605#1 173767648#0 656792746 654973851 836283375 627704614 666954909 656741948"/>
    </vehicle>
    <vehicle id="delivery764" type="delivery" depart="29705.00">
        <route edges="633313289 253945337#1 633313291 -1000460220 725993957 635249622 1001575699#1 515113758#1 592190935#0 253945391#1 649136603 763514665#1 763514664#1 676705143 718971944#0 667468497#0 627708719 160588641#0 46595131#2 584419619#1 383365019"/>
    </vehicle>
    <vehicle id="delivery189" type="delivery" depart="29707.00">
        <route edges="670664313#0 479342620#0 654996884 747823928 763010994#0 479342618#0 459186763#0 22323516#0 140573032#0 477930086#1 747360393 173791998 173960125 633306914 479332223 479332224#0 649807912 635276800 479332225#0 634751407#0 634751407#1 173779730 528539591#0 528539591#1 459186769#0 459186769#1 16688065 459186771 763525864 763525863 21701074#1 75067163#0 173791997 633871920#0 479540202#0 174262771#1 83145747#1 763513331 479284867#0"/>
    </vehicle>
    <vehicle id="delivery905" type="delivery" depart="29723.00">
        <route edges="160585367#1 -795501187 -1001575699#1 635249621 479370145 1030320617#0 477930084 786486163 725993955#1 140573032#0 477930085#2 633369736 633369730#1 661925617 747280759 633175175#1 639368623 75589918 667358895 649489756 787027492 651173807#1 22034474#1 174552500 649123366 477957450#0 477957451#0 765914084 480876260#0 480257499 167632063 38533985 745352145 38533986 587054605#1 173767648#0 656792746 654973851 836283375 627704614 666954909 656741947 782299957 782299956 632592547#0 654744791 654744792 753925020#0 783843567#0"/>
    </vehicle>
    <vehicle id="delivery400" type="delivery" depart="29726.00">
        <route edges="478355846#1 74619446#0 478356517 21567404 474639288#0 75538367 479616017 633855526#0 633855526#1 75538366#0 654723454#1 633266894#2 779493222#0 21665446#1 779487588#1 633275660 763525865 75523984 173767590#0 459186770 74731114 51511339 1303467716 156457347"/>
    </vehicle>
    <vehicle id="delivery747" type="delivery" depart="29735.00">
        <route edges="43826730 22920149#0 747038521 776656803#1 477930085#2 633369736 633369730#1 661925617 747280759 633175175#1 639368623 75589918 667358895 649489756 787027492 174552505#0 465984283#0"/>
    </vehicle>
    <vehicle id="delivery279" type="delivery" depart="29756.00">
        <route edges="645263377 633213704#0 711732013#0 481606279 459186761#1 633281453#0 633281458 173767571#0 75592459#0 827193321 749501203#0 633865721#0 22917253 766164643#0 -424896145#1 -959196429#6 515113757#1 991889742#0 958438590#0 652290325#1 140578590#0 23037305#2 477915674#1 479342613#0 849812552 150009548#0"/>
    </vehicle>
    <vehicle id="delivery665" type="delivery" depart="29774.00">
        <route edges="1351146951#0 480237014#0 630439201#1 75117647#0 630441430#1 480231140#1 351305510#0 480890495#1 480890498#0 661671265 647615471#1 21567384#1 480890499#0 480890501#1 762783531#0 633858561#0 633306762#1 634148758#0 22022182 35037531 480923439 480923440 749526508#0 749526509 480890502 535030470 149965081#0 23126207 780421437 633182923 478357857#0 21998983#1 747280760 829515509 477930090#1 477930090#2 477930091 1035164361#0 447713241#0 254344607#0 -39473982"/>
    </vehicle>
    <vehicle id="delivery144" type="delivery" depart="29784.00">
        <route edges="635253783 150396839 763519453 477796390 634339310#0 121906570 734706139 21697558"/>
    </vehicle>
    <vehicle id="delivery330" type="delivery" depart="29848.00">
        <route edges="-671520512#1 466001205#0 667076271 480488535#0 465269960#1 655000451#0 587053336#1 481656720#0 465269959#1 654999428 638282561#1 745710910#0 479734993#1 673823142 480890495#1 480890498#0 661671265 647615471#1 21567384#1 480890499#0 480890501#1 762783531#0 633858561#0 633306762#1 634148758#0 22022182 35037531 480923439 480923440 749526508#0 749526509 480890502 535030470 149965081#0 23126207 780421437 23126209#1 639034134 747792288 477933142 747369960 49890815#1 786490610 633328387 780398517"/>
    </vehicle>
    <vehicle id="delivery469" type="delivery" depart="29848.00">
        <route edges="395065443#0 665722909 477930090#1 477930090#2 477930091 1035164361#0 447713241#0 771594255#0 771594255#1 481615565#0 481615565#1 481615565#2 481615565#3 751804397#0 22019830 751804394#0 536908871 75589915 481040694 826805718 747269112 536908874#0 75589918 667358895 649489756 787027492 538223064 649763835 174552494 480923441 480923442 35037528 535030458 35037529 75538367 479616017 633855526#0 633855526#1 75538366#0 654723454#1 633266894#2 779493222#0 21665446#1 630438074#1 749656420#1 670651564 634197848#0 176204514#1 634152052 651983305 351305508 633283570 634817435 176204513#1 75120042#2 649396367#1 74722800#1 1369958494 140398093 635626258#0"/>
    </vehicle>
    <vehicle id="delivery908" type="delivery" depart="29881.00">
        <route edges="176296632 459186762 459186761#1 633281453#0 633281458 117042702#0 117042702#1 22010713#1 479610398#0 747030842#0 747030842#1 661928080#0 661928065 459186767#0"/>
    </vehicle>
    <vehicle id="delivery414" type="delivery" depart="29892.00">
        <route edges="-766171287 -652540798 -465063443 465059835 847874140 459186766 842542108 479610398#0 747030842#0 747030842#1 661928080#0 661928065 459186767#0 459186767#1 459186768#1 747311785#1 633335608 74735245#0 75486815 22921960#0 173791998 173960125 633306914 479332223 479332224#0 649807912 635276800 479332225#0 634751407#0 634751407#1"/>
    </vehicle>
    <vehicle id="delivery557" type="delivery" depart="29906.00">
        <route edges="-836674597 23125723 -665467184#1 711732013#0 481606279 459186761#1 633281453#0 633281458 173767571#0 22002585 690187435#0 661922136 747038521 776656803#1 477930086#1 747360393 173791998 173960125 633306914 479332223 479332224#0 649807912 635276800 479332225#0 634751407#0 634751407#1 173779730 528539591#0 528539591#1 459186769#0 459186769#1 16688065 459186771 51511350#1 173767773 639651058 639651059 633846400 649550324 584496504#0 -676705881#1 538223034 638100591"/>
    </vehicle>
    <vehicle id="delivery641" type="delivery" depart="29906.00">
        <route edges="480227412 480227409#0 633326725 173792001 173792002 97667945#0 21702431#0 176298701 21694885#0 746630881#1 480231138#1 630441430#1 480231140#1 351305510#0 480890495#1 480890498#0 661671265 647615471#1 21567384#1 480890499#0 480890501#1 762783531#0 633858561#0 633306762#1 634148758#0 587055268#1 535030453 633272252 536908876 764068788 633826101#0 764063882 536908875#0"/>
    </vehicle>
    <vehicle id="delivery669" type="delivery" depart="29906.00">
        <route edges="-639856237 665722912 665722911 22920811 -670649237 -665724188 747280759 633175175#1 639368623 75589918 667358895 649489756 787027492 538223064 649763835 174552494 480923441 480923442 35037528 535030458 35037529 75538367 479616017 633855526#0 633855526#1 75538366#0 654723454#1 633266894#2 779493222#0 780398522 465064163#1 479602347 127219021 654731786#0 28382649#1 -669621758 640017442#0"/>
    </vehicle>
    <vehicle id="delivery476" type="delivery" depart="29911.00">
        <route edges="480928875 587055769#1 23126207 780421437 23126209#1 639034134 747792288 477933142 747369960 633369730#1 661925617 639855804 639861526 -670649237"/>
    </vehicle>
    <vehicle id="delivery114" type="delivery" depart="29912.00">
        <route edges="190944910 480261293#0 634836904#1 480231138#1 630441430#1 480231140#1 351305510#0 480890495#1 480890498#0 661671265 647615471#1 21567384#1 480890499#0 480890501#1 762783531#0 633858561#0 633306762#1 634148758#0 22022182 35037531 480923439 480923440 749526508#0 749526509 480890502 535030470 480928875 749507440 749507441 840111936 633149629 747269111#1 633249350 480921267 480921268 764109815 996698202 174552511 996698203 765276862"/>
    </vehicle>
    <vehicle id="delivery315" type="delivery" depart="29918.00">
        <route edges="766164643#0 -424896145#1 -1168434377 459186764#0 479384753#0 173791999 633270302 512918175#0 546697871#0 633279448 22920800 704818191 633279447#0 776435575 23125723 736742398#0 538922855#0 538922853 633213704#0"/>
    </vehicle>
    <vehicle id="delivery230" type="delivery" depart="29926.00">
        <route edges="651937371 833778873 667070308 1351146951#0 480237014#0 630439201#1 75117647#0 630441430#1 480231140#1 351305510#0 636819937#1 654758971 636825832#1 465269958 465269957#1 742058833 654764065#0 174035888 763010996 459186772#0 459186770 74731114 581766308 750071184#0 21998987#0 635390734#0 35037537#2 173779732#1 22919331#0 22919331#1 670664313#0 479342620#0 654996884 747823928 763010994#0 479342618#0 459186763#0 22323516#0 74735250 22921959 747041623 1029272263 1112431504 710255082-AddedOnRampEdge 710255082 763010993 459186764#0 479384755#0 749501204#0 479378257#1 22012973#0 465063443"/>
    </vehicle>
    <vehicle id="delivery447" type="delivery" depart="29965.00">
        <route edges="74923113#0 632507583#0 33913129 724572178 173166842#0 176296632 459186762 459186761#1 633281453#0 633281458 117042702#0 117042702#1"/>
    </vehicle>
    <vehicle id="delivery562" type="delivery" depart="29969.00">
        <route edges="254344607#0 149965078 876007708#0 481615565#2 481615565#3 751804397#0 22019830 751804394#0 536908871 75589915 481040694 826805718 747269112 536908874#0 75589918 667358895 649489756 787027492 538223064 649763835 174552494 480923441 480923442 35037528 535030458 35037529 587055268#1 535030453 632233020#0 1169313728 -1169313728"/>
    </vehicle>
    <vehicle id="delivery763" type="delivery" depart="29984.00">
        <route edges="745352145 38533986 173767975#1 762766312 484857214 480746650 112154494 9590561#1 782910209 480876258 654860384#0 654860384#1 535030447 654860379#0 535030470 480928875 749507440 749507441 840111936 633149629 536908873#1 173713417 661662014 719128254 826805719 481040696 464779332#0 651196536 647087569 22019830 751804394#0"/>
    </vehicle>
    <vehicle id="delivery867" type="delivery" depart="29990.00">