<trips><trip id="delivery735" type="delivery" depart="28813" from="121879133" to="849812552" /><trip id="delivery524" type="delivery" depart="28819" from="21816861" to="477796390" /><trip id="delivery939" type="delivery" depart="28828" from="21581831#1" to="479378257#1" /><trip id="delivery834" type="delivery" depart="28869" from="21581835#0" to="480227403" /><trip id="delivery756" type="delivery" depart="28897" from="190945770#0" to="637899263#1" /><trip id="delivery674" type="delivery" depart="28914" from="-667082792" to="959196429#2" /><trip id="delivery278" type="delivery" depart="28939" from="150045533#1" to="173166872" /><trip id="delivery943" type="delivery" depart="28954" from="639406147" to="536908872" /><trip id="delivery565" type="delivery" depart="28971" from="465701322#0" to="22002585" /><trip id="delivery831" type="delivery" depart="28994" from="643780374" to="-665507932" /><trip id="delivery470" type="delivery" depart="28998" from="43826730" to="173767571#0" /><trip id="delivery357" type="delivery" depart="29003" from="635253783" to="634152052" /><trip id="delivery51" type="delivery" depart="29005" from="-725993958" to="780089097" /><trip id="delivery300" type="delivery" depart="29010" from="478356516#0" to="634817435" /><trip id="delivery812" type="delivery" depart="29052" from="459186767#1" to="1013499433" /><trip id="delivery636" type="delivery" depart="29100" from="479565612#0" to="481649583#1" /><trip id="delivery803" type="delivery" depart="29110" from="635298674" to="465056811#1" /><trip id="delivery634" type="delivery" depart="29117" from="429060639#0" to="996698202" /><trip id="delivery639" type="delivery" depart="29122" from="627680954#1" to="1313403784" /><trip id="delivery474" type="delivery" depart="29125" from="479332225#0" to="649206042#0" /><trip id="delivery616" type="delivery" depart="29125" from="787009451" to="1081680268#1" /><trip id="delivery873" type="delivery" depart="29142" from="834594330" to="769217786" /><trip id="delivery325" type="delivery" depart="29147" from="-836675202" to="173767648#0" /><trip id="delivery56" type="delivery" depart="29159" from="763514664#1" to="665722912" /><trip id="delivery859" type="delivery" depart="29181" from="633299362#0" to="174552494" /><trip id="delivery661" type="delivery" depart="29209" from="665461373#0" to="74722798#1" /><trip id="delivery975" type="delivery" depart="29214" from="479370145" to="633267524" /><trip id="delivery98" type="delivery" depart="29276" from="665257562" to="480257499" /><trip id="delivery294" type="delivery" depart="29280" from="1376076513" to="765337433" /><trip id="delivery646" type="delivery" depart="29299" from="22323516#0" to="634751407#1" /><trip id="delivery941" type="delivery" depart="29319" from="174552505#0" to="643771780" /><trip id="delivery296" type="delivery" depart="29327" from="21560688#0" to="465056817" /><trip id="delivery188" type="delivery" depart="29349" from="751470821" to="798221355" /><trip id="delivery430" type="delivery" depart="29394" from="782299957" to="174554431" /><trip id="delivery767" type="delivery" depart="29431" from="958438590#0" to="172904556" /><trip id="delivery814" type="delivery" depart="29459" from="-667070844#1" to="635249622" /><trip id="delivery533" type="delivery" depart="29468" from="585630258#0" to="775168788#1" /><trip id="delivery901" type="delivery" depart="29472" from="654995230#1" to="687958772" /><trip id="delivery322" type="delivery" depart="29477" from="830581722" to="465063443" /><trip id="delivery897" type="delivery" depart="29548" from="747787065#2" to="758014967#0" /><trip id="delivery220" type="delivery" depart="29597" from="751462767" to="633398275#2" /><trip id="delivery623" type="delivery" depart="29617" from="21584516#0" to="479529431#0" /><trip id="delivery134" type="delivery" depart="29633" from="635584180" to="632464061#0" /><trip id="delivery45" type="delivery" depart="29644" from="-170661183#0" to="-877842045" /><trip id="delivery620" type="delivery" depart="29653" from="127219021" to="656741948" /><trip id="delivery764" type="delivery" depart="29705" from="633313289" to="383365019" /><trip id="delivery189" type="delivery" depart="29707" from="670664313#0" to="479284867#0" /><trip id="delivery905" type="delivery" depart="29723" from="160585367#1" to="783843567#0" /><trip id="delivery400" type="delivery" depart="29726" from="478355846#1" to="156457347" /><trip id="delivery747" type="delivery" depart="29735" from="43826730" to="465984283#0" /><trip id="delivery279" type="delivery" depart="29756" from="645263377" to="150009548#0" /><trip id="delivery665" type="delivery" depart="29774" from="1351146951#0" to="-39473982" /><trip id="delivery144" type="delivery" depart="29784" from="635253783" to="21697558" /><trip id="delivery330" type="delivery" depart="29848" from="-671520512#1" to="780398517" /><trip id="delivery469" type="delivery" depart="29848" from="395065443#0" to="635626258#0" /><trip id="delivery908" type="delivery" depart="29881" from="176296632" to="459186767#0" /><trip id="delivery414" type="delivery" depart="29892" from="-766171287" to="634751407#1" /><trip id="delivery557" type="delivery" depart="29906" from="-836674597" to="638100591" /><trip id="delivery641" type="delivery" depart="29906" from="480227412" to="536908875#0" /><trip id="delivery669" type="delivery" depart="29906" from="-639856237" to="640017442#0" /><trip id="delivery476" type="delivery" depart="29911" from="480928875" to="-670649237" /><trip id="delivery114" type="delivery" depart="29912" from="190944910" to="765276862" /><trip id="delivery315" type="delivery" depart="29918" from="766164643#0" to="633213704#0" /><trip id="delivery230" type="delivery" depart="29926" from="651937371" to="465063443" /><trip id="delivery447" type="delivery" depart="29965" from="74923113#0" to="117042702#1" /><trip id="delivery562" type="delivery" depart="29969" from="254344607#0" to="-1169313728" /><trip id="delivery763" type="delivery" depart="29984" from="745352145" to="751804394#0" /><trip id="delivery867" type="delivery" depart="29990" from="1081680269#3" to="638282561#1" /><trip id="delivery302" type="delivery" depart="30038" from="633798159#0" to="1010903479" /><trip id="delivery247" type="delivery" depart="30050" from="477957456" to="-643816016" /><trip id="delivery394" type="delivery" depart="30059" from="532341007" to="265150826#0" /><trip id="delivery415" type="delivery" depart="30059" from="-667080057#0" to="22811145#0" /><trip id="delivery789" type="delivery" depart="30060" from="751813850" to="830581722" /><trip id="delivery855" type="delivery" depart="30070" from="459186770" to="1330109052" /><trip id="delivery918" type="delivery" depart="30077" from="1376076509" to="639936518#0" /><trip id="delivery410" type="delivery" depart="30135" from="-479734994#1" to="481606280" /><trip id="delivery412" type="delivery" depart="30154" from="48035389#1" to="170661184#0" /><trip id="delivery512" type="delivery" depart="30179" from="-667070307" to="474832238" /><trip id="delivery863" type="delivery" depart="30180" from="643805671" to="174262763" /><trip id="delivery784" type="delivery" depart="30192" from="667082790" to="634743824#0" /><trip id="delivery732" type="delivery" depart="30222" from="481649583#1" to="448084961" /><trip id="delivery836" type="delivery" depart="30225" from="655596616" to="489499533" /><trip id="delivery978" type="delivery" depart="30232" from="750875320" to="465064168#0" /><trip id="delivery7" type="delivery" depart="30246" from="480488526" to="1313402466#0" /><trip id="delivery954" type="delivery" depart="30296" from="49890814" to="97667944" /><trip id="delivery286" type="delivery" depart="30317" from="75592459#0" to="481615565#2" /><trip id="delivery979" type="delivery" depart="30325" from="480746652#0" to="21701078" /><trip id="delivery998" type="delivery" depart="30326" from="763519453" to="-481984211" /><trip id="delivery187" type="delivery" depart="30331" from="639651058" to="140578590#0" /><trip id="delivery719" type="delivery" depart="30332" from="1013499434#0" to="751767497#0" /><trip id="delivery733" type="delivery" depart="30340" from="763010993" to="176298702" /><trip id="delivery340" type="delivery" depart="30355" from="771594255#0" to="481040696" /><trip id="delivery517" type="delivery" depart="30381" from="34878597#0" to="-690187433#1" /><trip id="delivery314" type="delivery" depart="30382" from="480250099" to="776435575" /><trip id="delivery196" type="delivery" depart="30388" from="1013499433" to="174552487" /><trip id="delivery957" type="delivery" depart="30388" from="-633183708" to="-670354713" /><trip id="delivery880" type="delivery" depart="30425" from="22022182" to="16688065" /><trip id="delivery628" type="delivery" depart="30434" from="480890499#0" to="-725993957" /><trip id="delivery555" type="delivery" depart="30442" from="718971944#0" to="1009348662#0" /><trip id="delivery160" type="delivery" depart="30443" from="633149629" to="643780145#0" /><trip id="delivery345" type="delivery" depart="30474" from="826342061" to="481656720#0" /><trip id="delivery500" type="delivery" depart="30500" from="1376076513" to="22012973#0" /><trip id="delivery672" type="delivery" depart="30526" from="480919513#2" to="639368623" /><trip id="delivery215" type="delivery" depart="30545" from="585630258#0" to="667071654#0" /><trip id="delivery551" type="delivery" depart="30548" from="652540798" to="633826101#0" /><trip id="delivery538" type="delivery" depart="30559" from="-765879518" to="769217787" /><trip id="delivery341" type="delivery" depart="30598" from="-667070307" to="633309567" /><trip id="delivery146" type="delivery" depart="30601" from="633182923" to="45070968" /><trip id="delivery776" type="delivery" depart="30623" from="-464207648" to="41663781" /><trip id="delivery355" type="delivery" depart="30628" from="173792001" to="633335608" /><trip id="delivery997" type="delivery" depart="30707" from="633846400" to="479540206#0" /><trip id="delivery462" type="delivery" depart="30716" from="632507583#0" to="749526509" /><trip id="delivery794" type="delivery" depart="30728" from="112154494" to="724572180#1" /><trip id="delivery46" type="delivery" depart="30735" from="-644406930" to="480252899" /><trip id="delivery878" type="delivery" depart="30756" from="1035164361#0" to="542298580#0" /><trip id="delivery348" type="delivery" depart="30760" from="480428604" to="184785166#0" /><trip id="delivery363" type="delivery" depart="30761" from="480876260#0" to="996698204" /><trip id="delivery627" type="delivery" depart="30767" from="173166872" to="825214128#0" /><trip id="delivery377" type="delivery" depart="30769" from="1029272263" to="477930090#2" /><trip id="delivery761" type="delivery" depart="30778" from="1118210398#0" to="479337907" /><trip id="delivery452" type="delivery" depart="30789" from="649770884" to="-738147144" /><trip id="delivery612" type="delivery" depart="30789" from="21584516#0" to="1376076507" /><trip id="delivery545" type="delivery" depart="30808" from="783782460#0" to="747269111#1" /><trip id="delivery609" type="delivery" depart="30826" from="630387759#0" to="-444841565#2" /><trip id="delivery103" type="delivery" depart="30839" from="9590308#0" to="633309567" /><trip id="delivery200" type="delivery" depart="30854" from="22694034#1" to="633265315" /><trip id="delivery223" type="delivery" depart="30926" from="479342618#0" to="667075342" /><trip id="delivery575" type="delivery" depart="30937" from="478348925#0" to="46538133" /><trip id="delivery856" type="delivery" depart="30957" from="532345558#0" to="176174561#1" /><trip id="delivery185" type="delivery" depart="30978" from="643805671" to="1313402466#1" /><trip id="delivery316" type="delivery" depart="30992" from="479370142#2" to="480923442" /><trip id="delivery499" type="delivery" depart="31004" from="783843566#0" to="396336419" /><trip id="delivery886" type="delivery" depart="31009" from="732229008#1" to="1303467716" /><trip id="delivery153" type="delivery" depart="31021" from="176296635#0" to="479342620#0" /><trip id="delivery61" type="delivery" depart="31050" from="479384753#0" to="-751462760#1" /><trip id="delivery795" type="delivery" depart="31056" from="752181245" to="54144640#0" /><trip id="delivery811" type="delivery" depart="31057" from="585630258#0" to="515113759#1" /><trip id="delivery63" type="delivery" depart="31084" from="1081680267#1" to="21815891#1" /><trip id="delivery495" type="delivery" depart="31110" from="824865961#0" to="751470819" /><trip id="delivery16" type="delivery" depart="31120" from="786490610" to="762804280#1" /><trip id="delivery243" type="delivery" depart="31144" from="641073307" to="665776852" /><trip id="delivery149" type="delivery" depart="31149" from="43755579#0" to="22811145#0" /><trip id="delivery404" type="delivery" depart="31162" from="477913761#0" to="633279447#0" /><trip id="delivery358" type="delivery" depart="31178" from="474639288#0" to="1029272262" /><trip id="delivery727" type="delivery" depart="31250" from="-670649237" to="-667352597" /><trip id="delivery540" type="delivery" depart="31258" from="849812550" to="479342618#0" /><trip id="delivery922" type="delivery" depart="31291" from="783843566#0" to="173166872" /><trip id="delivery460" type="delivery" depart="31309" from="-643774512" to="1081680269#1" /><trip id="delivery224" type="delivery" depart="31313" from="140573036#0" to="635253783" /><trip id="delivery956" type="delivery" depart="31313" from="74722798#1" to="-670354713" /><trip id="delivery95" type="delivery" depart="31332" from="305865019#1" to="254344607#0" /><trip id="delivery12" type="delivery" depart="31334" from="874043279" to="-836675202" /><trip id="delivery378" type="delivery" depart="31341" from="665722909" to="656719472" /><trip id="delivery217" type="delivery" depart="31375" from="592190935#0" to="654734120#0" /><trip id="delivery945" type="delivery" depart="31380" from="661370852" to="22012973#0" /><trip id="delivery688" type="delivery" depart="31388" from="749501202#0" to="746630881#1" /><trip id="delivery274" type="delivery" depart="31394" from="753817521#0" to="515113757#1" /><trip id="delivery559" type="delivery" depart="31422" from="534985185#0" to="532406002" /><trip id="delivery675" type="delivery" depart="31431" from="480876258" to="762804280#1" /><trip id="delivery29" type="delivery" depart="31436" from="-424896145#1" to="783782460#0" /><trip id="delivery805" type="delivery" depart="31515" from="480237021" to="173779755#0" /><trip id="delivery129" type="delivery" depart="31518" from="46538124#0" to="633335608" /><trip id="delivery850" type="delivery" depart="31560" from="480923439" to="459186763#0" /><trip id="delivery654" type="delivery" depart="31589" from="785812456" to="667071654#0" /><trip id="delivery37" type="delivery" depart="31591" from="681286780" to="1035164361#0" /><trip id="delivery427" type="delivery" depart="31615" from="480923441" to="633846400" /><trip id="delivery554" type="delivery" depart="31633" from="545574464" to="459186758#0" /><trip id="delivery0" type="delivery" depart="31637" from="753817523#1" to="140398093" /><trip id="delivery679" type="delivery" depart="31659" from="633295966" to="545574464" /><trip id="delivery604" type="delivery" depart="31680" from="1013499432" to="771594255#0" /><trip id="delivery148" type="delivery" depart="31681" from="-836663064" to="763513331" /><trip id="delivery245" type="delivery" depart="31720" from="121879131" to="633296735#1" /><trip id="delivery417" type="delivery" depart="31721" from="638282561#1" to="459186754#0" /><trip id="delivery411" type="delivery" depart="31777" from="764068788" to="751470811#0" /><trip id="delivery706" type="delivery" depart="31791" from="1201007627" to="633328387" /><trip id="delivery152" type="delivery" depart="31792" from="747792288" to="747823928" /><trip id="delivery288" type="delivery" depart="31821" from="747280759" to="-633809869" /><trip id="delivery999" type="delivery" depart="31838" from="667070308" to="-1000460220" /><trip id="delivery751" type="delivery" depart="31857" from="477930090#2" to="759540690#1" /><trip id="delivery593" type="delivery" depart="31906" from="649206042#0" to="635584180" /><trip id="delivery682" type="delivery" depart="31915" from="-765916681" to="712180888" /><trip id="delivery362" type="delivery" depart="31917" from="-765874074" to="634147399" /><trip id="delivery973" type="delivery" depart="31931" from="635341764" to="-671560446#1" /><trip id="delivery115" type="delivery" depart="31968" from="749978195" to="480488522#1" /><trip id="delivery181" type="delivery" depart="31992" from="747280759" to="474301018#2" /><trip id="delivery875" type="delivery" depart="32004" from="30527033" to="667083420" /><trip id="delivery282" type="delivery" depart="32011" from="174262771#1" to="632233020#0" /><trip id="delivery547" type="delivery" depart="32015" from="672827738" to="140564541" /><trip id="delivery969" type="delivery" depart="32016" from="778468456" to="1215229386" /><trip id="delivery213" type="delivery" depart="32050" from="480428604" to="479616093#0" /><trip id="delivery241" type="delivery" depart="32061" from="829515509" to="581942152#0" /><trip id="delivery996" type="delivery" depart="32071" from="704818191" to="633855526#1" /><trip id="delivery695" type="delivery" depart="32122" from="634147403#0" to="749978195" /><trip id="delivery738" type="delivery" depart="32127" from="833778873" to="480876260#0" /><trip id="delivery721" type="delivery" depart="32149" from="480237014#0" to="725993957" /><trip id="delivery75" type="delivery" depart="32166" from="172274257#0" to="465056806#0" /><trip id="delivery206" type="delivery" depart="32187" from="1081680267#1" to="747288345#0" /><trip id="delivery744" type="delivery" depart="32226" from="633408424#0" to="244916482#0" /><trip id="delivery971" type="delivery" depart="32236" from="652572546" to="1013499433" /><trip id="delivery944" type="delivery" depart="32240" from="22811145#0" to="528539591#1" /><trip id="delivery120" type="delivery" depart="32268" from="411890820#1" to="173779754#0" /><trip id="delivery792" type="delivery" depart="32294" from="47298601#0" to="1235143547#1" /><trip id="delivery525" type="delivery" depart="32361" from="684544690" to="747369960" /><trip id="delivery583" type="delivery" depart="32368" from="480252899" to="762766312" /><trip id="delivery728" type="delivery" depart="32394" from="634846719" to="-479734994#1" /><trip id="delivery968" type="delivery" depart="32400" from="639872238#1" to="480252901" /><trip id="delivery534" type="delivery" depart="32416" from="639406147" to="480227403" /><trip id="delivery518" type="delivery" depart="32435" from="638103894" to="1303467716" /><trip id="delivery529" type="delivery" depart="32447" from="762804280#1" to="459186764#0" /><trip id="delivery824" type="delivery" depart="32480" from="538922839" to="46522836#0" /><trip id="delivery807" type="delivery" depart="32485" from="477957453#0" to="459186769#0" /><trip id="delivery902" type="delivery" depart="32549" from="22917253" to="-751462762#1" /><trip id="delivery36" type="delivery" depart="32595" from="481675642#0" to="479332223" /><trip id="delivery62" type="delivery" depart="32612" from="649770884" to="661370852" /><trip id="delivery892" type="delivery" depart="32627" from="480257499" to="826805719" /><trip id="delivery567" type="delivery" depart="32646" from="-474280009#1" to="395058735" /><trip id="delivery741" type="delivery" depart="32673" from="170661183#1" to="75538366#0" /><trip id="delivery605" type="delivery" depart="32685" from="630438074#1" to="172904556" /><trip id="delivery992" type="delivery" depart="32688" from="636937879" to="649123366" /><trip id="delivery618" type="delivery" depart="32731" from="752084776" to="-23132150#1" /><trip id="delivery970" type="delivery" depart="32749" from="775168788#1" to="646930805" /><trip id="delivery813" type="delivery" depart="32757" from="758014967#0" to="633798159#0" /><trip id="delivery49" type="delivery" depart="32766" from="638127182" to="624160075" /><trip id="delivery800" type="delivery" depart="32770" from="738108625#1" to="1376076511" /><trip id="delivery981" type="delivery" depart="32786" from="833783455" to="-751462778#2" /><trip id="delivery766" type="delivery" depart="32820" from="-737803196" to="479332227" /><trip id="delivery809" type="delivery" depart="32820" from="635256193" to="1313402465" /><trip id="delivery440" type="delivery" depart="32828" from="83145747#1" to="643805671" /><trip id="delivery980" type="delivery" depart="32828" from="639651059" to="633182923" /><trip id="delivery376" type="delivery" depart="32889" from="640252513" to="22019830" /><trip id="delivery38" type="delivery" depart="32922" from="-836674597" to="661671265" /><trip id="delivery787" type="delivery" depart="32940" from="22323516#0" to="667067670#0" /><trip id="delivery131" type="delivery" depart="32954" from="665722911" to="1081680268#1" /><trip id="delivery33" type="delivery" depart="32963" from="651937371" to="748649003#0" /><trip id="delivery379" type="delivery" depart="33011" from="747280760" to="534674929" /><trip id="delivery853" type="delivery" depart="33028" from="639854771#0" to="718311499#0" /><trip id="delivery17" type="delivery" depart="33029" from="190945738#0" to="661925617" /><trip id="delivery838" type="delivery" depart="33046" from="478356516#1" to="479734993#1" /><trip id="delivery250" type="delivery" depart="33065" from="785812456" to="21665446#1" /><trip id="delivery694" type="delivery" depart="33080" from="643771780" to="475217889" /><trip id="delivery195" type="delivery" depart="33095" from="1081680269#1" to="174552494" /><trip id="delivery351" type="delivery" depart="33098" from="173779736#0" to="459186762" /><trip id="delivery121" type="delivery" depart="33111" from="1369963424" to="633265315" /><trip id="delivery52" type="delivery" depart="33132" from="480488535#0" to="1376076511" /><trip id="delivery179" type="delivery" depart="33133" from="663073352" to="826805718" /><trip id="delivery936" type="delivery" depart="33141" from="-725993958" to="173791999" /><trip id="delivery108" type="delivery" depart="33146" from="477930090#2" to="667085476#0" /><trip id="delivery485" type="delivery" depart="33158" from="667114087" to="49890791#0" /><trip id="delivery696" type="delivery" depart="33172" from="-23132150#1" to="640199031#0" /><trip id="delivery810" type="delivery" depart="33172" from="-765874074" to="254344606" /><trip id="delivery375" type="delivery" depart="33201" from="481673127#0" to="479332226#0" /><trip id="delivery475" type="delivery" depart="33217" from="651173807#1" to="634751407#0" /><trip id="delivery43" type="delivery" depart="33244" from="634148758#0" to="155987123#0" /><trip id="delivery252" type="delivery" depart="33269" from="649338096" to="732247546#0" /><trip id="delivery952" type="delivery" depart="33286" from="587055769#1" to="-54144640#1" /><trip id="delivery781" type="delivery" depart="33291" from="779493222#0" to="-690187433#1" /><trip id="delivery516" type="delivery" depart="33303" from="749501204#0" to="745352145" /><trip id="delivery350" type="delivery" depart="33306" from="480921268" to="480923441" /><trip id="delivery715" type="delivery" depart="33309" from="166974054#0" to="842542108" /><trip id="delivery796" type="delivery" depart="33318" from="-765879518" to="633299362#1" /><trip id="delivery445" type="delivery" depart="33350" from="155987123#1" to="22917253" /><trip id="delivery102" type="delivery" depart="33362" from="536908875#0" to="711732019" /><trip id="delivery582" type="delivery" depart="33373" from="172032217#0" to="538922839" /><trip id="delivery39" type="delivery" depart="33393" from="639117847#0" to="667070844#0" /><trip id="delivery912" type="delivery" depart="33398" from="74735245#0" to="-22811145#1" /><trip id="delivery194" type="delivery" depart="33402" from="22921314#0" to="751462768#0" /><trip id="delivery91" type="delivery" depart="33430" from="630437927#0" to="775859255" /><trip id="delivery903" type="delivery" depart="33443" from="-676705881#1" to="481649583#1" /><trip id="delivery390" type="delivery" depart="33448" from="474301023" to="1118210398#0" /><trip id="delivery826" type="delivery" depart="33454" from="1303467716" to="43826730" /><trip id="delivery303" type="delivery" depart="33459" from="173779755#0" to="-778170822" /><trip id="delivery60" type="delivery" depart="33493" from="640278626#0" to="174407832#1" /><trip id="delivery689" type="delivery" depart="33547" from="479378257#1" to="155096471" /><trip id="delivery649" type="delivery" depart="33560" from="763513330#1" to="74722800#1" /><trip id="delivery895" type="delivery" depart="33587" from="1275950166" to="305865019#1" /><trip id="delivery579" type="delivery" depart="33594" from="638282561#1" to="395058738" /><trip id="delivery573" type="delivery" depart="33596" from="779487588#1" to="479616017" /><trip id="delivery652" type="delivery" depart="33624" from="643805671" to="711732017" /><trip id="delivery449" type="delivery" depart="33641" from="711177873" to="1013499428" /><trip id="delivery453" type="delivery" depart="33659" from="479284867#0" to="176298701" /><trip id="delivery369" type="delivery" depart="33665" from="764063882" to="747369960" /><trip id="delivery993" type="delivery" depart="33677" from="644332435#1" to="479616017" /><trip id="delivery833" type="delivery" depart="33705" from="74948598" to="22919331#0" /><trip id="delivery670" type="delivery" depart="33739" from="117042702#0" to="150009548#0" /><trip id="delivery168" type="delivery" depart="33771" from="21697558" to="641059898" /><trip id="delivery773" type="delivery" depart="33790" from="649530135#0" to="676705143" /><trip id="delivery594" type="delivery" depart="33800" from="636937879" to="479615877#0" /><trip id="delivery14" type="delivery" depart="33802" from="751804399#0" to="489499533" /><trip id="delivery104" type="delivery" depart="33807" from="665482261" to="824508775" /><trip id="delivery393" type="delivery" depart="33845" from="649763835" to="528658870#1" /><trip id="delivery739" type="delivery" depart="33845" from="639651058" to="-877842045" /><trip id="delivery227" type="delivery" depart="33852" from="634743824#0" to="667075342" /><trip id="delivery598" type="delivery" depart="33876" from="223868462#0" to="480250099" /><trip id="delivery257" type="delivery" depart="33894" from="634743824#0" to="478356516#1" /><trip id="delivery962" type="delivery" depart="34013" from="747792288" to="840111936" /><trip id="delivery703" type="delivery" depart="34026" from="633369730#1" to="667066408" /><trip id="delivery53" type="delivery" depart="34031" from="665257562" to="633858561#0" /><trip id="delivery643" type="delivery" depart="34037" from="173779732#1" to="-766171287" /><trip id="delivery734" type="delivery" depart="34061" from="479304700#1" to="836675437" /><trip id="delivery111" type="delivery" depart="34070" from="479284867#0" to="474639288#0" /><trip id="delivery723" type="delivery" depart="34072" from="661928065" to="581942152#0" /><trip id="delivery802" type="delivery" depart="34099" from="663073352" to="481615565#1" /><trip id="delivery742" type="delivery" depart="34102" from="748668448" to="763513329#0" /><trip id="delivery683" type="delivery" depart="34147" from="49890802#1" to="480231138#1" /><trip id="delivery542" type="delivery" depart="34187" from="170661184#0" to="639651059" /><trip id="delivery877" type="delivery" depart="34219" from="639034134" to="703525094" /><trip id="delivery650" type="delivery" depart="34220" from="74776957#0" to="833778547#0" /><trip id="delivery117" type="delivery" depart="34239" from="-639856237" to="-667352597" /><trip id="delivery138" type="delivery" depart="34274" from="667066408" to="74776957#0" /><trip id="delivery421" type="delivery" depart="34304" from="538223044#1" to="480488535#0" /><trip id="delivery934" type="delivery" depart="34327" from="-877842045" to="638103894" /><trip id="delivery690" type="delivery" depart="34344" from="21701078" to="528539591#1" /><trip id="delivery606" type="delivery" depart="34349" from="173792001" to="-22919811" /><trip id="delivery339" type="delivery" depart="34355" from="535030461" to="661671265" /><trip id="delivery991" type="delivery" depart="34374" from="-732229007" to="-424896145#1" /><trip id="delivery503" type="delivery" depart="34393" from="-765879518" to="877842046" /><trip id="delivery435" type="delivery" depart="34403" from="1029272262" to="710255082" /><trip id="delivery671" type="delivery" depart="34410" from="480876258" to="634705512" /><trip id="delivery570" type="delivery" depart="34453" from="587053336#1" to="633326725" /><trip id="delivery788" type="delivery" depart="34462" from="627707278" to="-639854956" /><trip id="delivery693" type="delivery" depart="34510" from="830581722" to="758014964#0" /><trip id="delivery994" type="delivery" depart="34541" from="-676705881#1" to="651934413" /><trip id="delivery691" type="delivery" depart="34584" from="632760161#1" to="747269112" /><trip id="delivery885" type="delivery" depart="34597" from="632225561#1" to="173791997" /><trip id="delivery940" type="delivery" depart="34608" from="465314690#1" to="22921959" /><trip id="delivery44" type="delivery" depart="34634" from="745710907#0" to="667085472" /><trip id="delivery736" type="delivery" depart="34634" from="639370466" to="1030320617#0" /><trip id="delivery828" type="delivery" depart="34640" from="21560685" to="21573273#0" /><trip id="delivery844" type="delivery" depart="34700" from="684524081" to="-646629642" /><trip id="delivery858" type="delivery" depart="34736" from="633283237" to="763519453" /><trip id="delivery488" type="delivery" depart="34737" from="654869749" to="634743824#0" /><trip id="delivery439" type="delivery" depart="34758" from="849812552" to="633836268" /><trip id="delivery109" type="delivery" depart="34776" from="766128353#1" to="535030453" /><trip id="delivery890" type="delivery" depart="34778" fro