<?xml version="1.0" encoding="UTF-8"?>

<!-- generated on 2025-07-07 18:52:52 by Eclipse SUMO duarouter Version 1.23.1
<duarouterConfiguration xmlns:xsi="http://www.w3.org/2001/XMLSchema-instance" xsi:noNamespaceSchemaLocation="http://sumo.dlr.de/xsd/duarouterConfiguration.xsd">

    <input>
        <net-file value="data/raw/sumo/jurong/jurong.net.xml"/>
        <route-files value="data/raw/sumo/jurong/jurong_full.weather_adjusted.trips.xml"/>
    </input>

    <output>
        <output-file value="data/raw/sumo/jurong/jurong_full.rou.xml"/>
    </output>

    <report>
        <ignore-errors value="true"/>
    </report>

</duarouterConfiguration>
-->

<routes xmlns:xsi="http://www.w3.org/2001/XMLSchema-instance" xsi:noNamespaceSchemaLocation="http://sumo.dlr.de/xsd/routes_file.xsd">
    <vType id="car" length="5.00" maxSpeed="25.00" color="white" accel="2.6" decel="4.5" sigma="0.5"/>
    <vehicle id="bg0" type="car" depart="8.00">
        <route edges="482075114 482073399 742160551 635691631#0 635689167 482053322 482053318 537148259 654880115 325024313#0 75050017#1 173767587 482053293 823170357 652382673 823169627 711557031 537148252#1 482046825#0 482046825#1 482046824 465272215#1"/>
    </vehicle>
    <vehicle id="bg1" type="car" depart="13.00">
        <route edges="784116305#1 636805719 747390000 639856644 639856874#1 632404322#0 632404322#1 673292061#0 673292061#1 724998207#1 173896289#0 173896289#1 173896289#2 173896289#3 173896289#4 173896289#5 724998206 174886273#0 22903988#1 244362471 512870442 173767740 642134875 630398747#1 479565801 74860023#0 74860023#1 1333303692 632442406 119941775 325024328#1 539328451 656456696 656456695 173767743 656456697 173767744 635722833 656645140 265150808 635725980 536655848 536655847#0 536655847#1 652274162 641568874 635585660#0 617923185#1 654874185 654874184#0 -744907216 -736727134 -639275213#1"/>
    </vehicle>
    <vehicle id="bg2" type="car" depart="25.00">
        <route edges="638914473 529549927#0 529549927#1 649397699#0 649397699#1 649397699#2 638915815#0 638915815#1 479552277#1 639683695 747390011 539418286#1 265150865 479565801 74860023#0 74860023#1 1333303692 632442406 119941775 325024328#1 539328451 656456696 656456695 173767743 656456697 173767744 635722833 656645140 265150808 635725980 536655848 536655847#0 536655847#1 652274162 641568874 635585660#0 617923185#1 654874185 654874184#0 464307247#1 175847333"/>
    </vehicle>
    <vehicle id="bg3" type="car" depart="26.00">
        <route edges="652152114"/>
    </vehicle>
    <vType id="bus" length="12.00" maxSpeed="18.00" color="red" accel="2.6" decel="4.5" sigma="0.5"/>
    <vehicle id="bg4" type="bus" depart="29.00">
        <route edges="539328451 656456696 656456695 173767743 656456697 173767744 635722833 656645140 265150808 668589554 660074445 656456698 746628430 746628429#0 746628429#1 746626786 746626789 746628428 656456706 656456704 747247424 22904198#1 22904198#2 747247427#1 22904199 639918034"/>
    </vehicle>
    <vehicle id="bg6" type="car" depart="38.00">
        <route edges="669632909 640174122#0 640174122#1 640174119 22904188#1 639275213#0 639275213#1 736727134 632722306 464307247#1 175847333 744667805 617923186#0 617923187#1 175847336 660073260#1 482083280 482083282 712075703#0 712075703#1 536655846 536655845 482083284 668589554 660074445 482084331 175014495#1 512870466 173767742 632719735 265150809 654866555 539328450 633247277 633247278#0 632717729"/>
    </vehicle>
    <vType id="truck" length="8.00" maxSpeed="20.00" color="yellow" accel="2.6" decel="4.5" sigma="0.5"/>
    <vehicle id="bg7" type="truck" depart="38.00">
        <route edges="635731829 786418678 383286540 632413087 177430569 637959070 637959071 637959072 671522621#0 482089888 482090279 464307248#0 464307247#1 175847333 744667805 617923186#0 617923187#1 175847336 660073260#1 482083280 482083282 712075703#0 712075703#1 536655846 536655845 482083284 668589554 660074445 482084331 175014495#1 512870466 173767742 632719735 265150809 654866555 539328450 633247277 633247278#0 173767739 173767741#1 479535239 632708594#1 479563865 630398746#0 630398746#1 74860024 512870443 173896233 632406819#0 651931640#1 74592233#0 74592233#1 74592233#2 632412033#0 632412033#1 655137119#0 173767970#1 173767970#2 632418151#1 632405236#1 22903883#0 22903883#1 632405235 640195334#1 640193228 640193230 -635341773#0"/>
    </vehicle>
    <vType id="motorcycle" length="2.00" maxSpeed="28.00" color="blue" accel="2.6" decel="4.5" sigma="0.5"/>
    <vehicle id="bg8" type="motorcycle" depart="47.00">
        <route edges="-646668613 -824497092 -22903984 -664964160 74860022#1 74860022#2 74860022#3 74860022#4 638914476#0 638914476#1 287903593#0 287903593#1 287903593#2 638914475#0 725220564 74860017#0 74860017#1 725221150 725221151#0 651931640#1 74592233#0 74592233#1 74592233#2 632412033#0 632412033#1 655137119#0 642119584#1 642119584#2 639856646 642179150#1 642125601 639856645#0 639856645#2 747390003"/>
    </vehicle>
    <vehicle id="bg9" type="bus" depart="53.00">
        <route edges="711668530 351310948#0 351310948#1 711668536 635374653 711695943 711695941 635374657 635374656#0 194654916#1 649163256 635393381 194654913#1 632368261#0 632368261#1 1066497621 482089868 1219971639#1 1219971639#2 482089865 673207938#0 673207938#1 824070958 668611375#0 668611375#1 635725980 536655848 536655847#0 536655847#1 652274162 641568874 635585660#0 617923187#1 175847336 660073260#1 482083280 482083282"/>
    </vehicle>
    <vehicle id="bg11" type="bus" depart="60.00">
        <route edges="482046821 741953050 482047176 482047177 482053300 632727858 482053304 383286530#1 175014490 482071860 482071861 482071862 482053310 482053314 482071863#0 194654913#1 632368261#0 632368261#1 1066497621 482089868 1219971639#1 1219971639#2 482089865 482089870 635731829 786418678 383286540 632413087 177430569 637959070 637959071 637959072 671522621#0 482089888 482090279 464307248#0 464307247#1 175847333"/>
    </vehicle>
    <vehicle id="bg14" type="bus" depart="64.00">
        <route edges="-664957720 -644352005 -644404698 -644404697#0 -644405729 -116688048 -644405728 -725227643 -654861222 -644920057 -643607582 -664957719 116688896 635294794 725227644 655138957 643607582"/>
    </vehicle>
    <vehicle id="bg15" type="car" depart="66.00">
        <route edges="173896289#0 173896289#1 173896289#2 173896289#3 173896289#4 173896289#5 724998206 174886273#0 22903988#1 244362471 512870442 173767740 642134875 630398747#1 479565801 74860023#0 74860023#1 1333303692 632442406 119941775 325024328#1 539328451 656456696 656456695 173767743 656456697 173767744 635722833 656645140 265150808 635725980 380710424#0 380710424#1 640024805#1"/>
    </vehicle>
    <vehicle id="bg16" type="motorcycle" depart="67.00">
        <route edges="175014499#1 175014499#2 635751294 654902921 635748328 175014497 173767728#1 482088811 482087547#1 641546938 482086718 194654932#0 194654932#1 656456706 656456704 744577281 656456710 539328450 633247277 633247278#0 173767739 173767741#1 479535239 632708594#1 479552276#0 479552276#1 539418287 747390007#0 638915813 747777160 635715766#1 649397699#0 649397699#1 649397699#2 638915815#0 638915815#1 479552277#1 639683695"/>
    </vehicle>
    <vehicle id="bg17" type="motorcycle" depart="69.00">
        <route edges="287903593#1"/>
    </vehicle>
    <vehicle id="bg18" type="bus" depart="78.00">
        <route edges="747389998#1 747777158#1 747777158#2 747777158#3 636805724#0 636805724#1 784116305#1 636805719 747390000 639856644 639856874#1 632404322#0 632404322#1 673292061#0 673292061#1 173767970#1 173767970#2 632418151#1 632410778#1 22903881 824531527 655137625#1"/>
    </vehicle>
    <vehicle id="bg19" type="car" depart="80.00">
        <route edges="640170882#0 512870330 729800501 674356795#1 823170806 823170687 649816717 632390287 325024339#0 632390289#1 632390289#2 632390288 744907219 175014499#1 175014499#2 635751294 654902921 635748328 175014497 173767728#1 482088811 482087547#1 641546938 482086718 194654932#0 194654932#1 656456706 656456704 744577281 656456710 539328450 633247277 633247278#0 173767739 173767741#1 479535239 632708594#1 479563865 265150865 479565801 74860023#0 74860023#1 -1333303694#1 -1333303694#0 1333303693#0 1333303693#1"/>
    </vehicle>
    <vehicle id="bg20" type="car" depart="88.00">
        <route edges="539328451 656456696 656456695 173767743 656456697 173767744 635722833 656645140 265150808 668589554 660074445 482084331 175014495#1 512870466 173767742 632719735 265150809 654866555 539328450 633247277 633247278#0 173767739 173767741#1 479535239 632708594#1 479563865 265150865 1103094380#0 1103094380#1 747777158#1 747777158#2 747777158#3 636805724#0"/>
    </vehicle>
    <vehicle id="bg21" type="bus" depart="89.00">
        <route edges="824531530 641204030#0 641204030#1 824531526 824531525 655135994#0 655135994#1 325024347#1 724998207#1 173896289#0 173896289#1 173896289#2 173896289#3 173896289#4 173896289#5 724998206 174886273#0 22903988#1 244362471 512870442 173767740 642134875 630398747#1 479565801 74860023#0 74860023#1 1333303692 632442406 119941775 325024328#1 539328451 656456696 656456695 173767743 656456691 75050008 746626787 175014492#0 175014492#1 482087543 482087544 482087545 482087549#0 482087549#1 482088813 635752351#1 635752721 482087548 482088807 383286539#0 383286530#1 175014490 482071860 482071861 482071862 482053310 482053314 482071863#0 194654913#1 632368261#0 632368261#1 158232313#0 158232313#1 158232313#2 158232313#3 158232313#4 158232313#5 639268830 632697478#0 632697478#1"/>
    </vehicle>
    <vehicle id="bg22" type="car" depart="96.00">
        <route edges="652152114 632703919 652152112 482082378#0 617923187#1 175847336 660073260#1 482083280 482083282 712075703#0 712075703#1 536655846 536655845 482083284 668180599#1 673207937 668611374 1220000767 194654914#0 482089861 482089858 639971296#0 639971296#1 639971296#2 639973431#0 639973431#1 635399928#0 325024307#1 667362634 482073397 654883592 654883591#1 465270702#0 465270702#1 305406961#1"/>
    </vehicle>
    <vehicle id="bg24" type="bus" depart="100.00">
        <route edges="632404322#1 673292061#0 673292061#1 724998207#1 173896289#0 173896289#1 173896289#2 173896289#3 173896289#4 173896289#5 724998206 174886273#0 22903988#1 244362471 512870442 173767740 642134875 630398747#1 479565801 74860023#0 74860023#1 1333303692 632442406 119941775 325024328#1 539328451 656456696 656456695 173767743 656456691 75050008 746626787 175014492#0 175014492#1 482087543 482087544 482087545 482087549#0 482087549#1 482088813 635752351#1 635752721 482087548 482088807 383286539#0 383286530#1 175014490 482071860 482071861 482071862 482053310 482053314 482071863#0 194654913#1 632368261#0 632368261#1 158232313#0 158232313#1 158232313#2"/>
    </vehicle>
    <vehicle id="bg28" type="truck" depart="107.00">
        <route edges="173767970#1 173767970#2 632418151#1 325024347#1 724998207#1 173896289#0 173896289#1 173896289#2 173896289#3 173896289#4 173896289#5 724998206 174886273#0 22903988#1 244362471 512870442 173767740 642134875 630398747#1 479565801 74860023#0 74860023#1 1333303692 632442406 119941775 325024328#1 539328451 656456696 656456695 173767743 656456691 75050008 746626787 175014492#0 175014492#1 482087543 482087544 482087545 482087549#0 482087549#1 482088813 635752351#1 635752721 482087548 482088807 383286539#0 75050017#1 173767587 482053293 823170357 652382673 823169627 711557031 537148252#1"/>
    </vehicle>
    <vehicle id="bg29" type="motorcycle" depart="108.00">
        <route edges="823166438 227086704#0 227086704#1 747247425#1 656456712#1 656456702#0 656456702#1 173767739 119941775 325024328#1 539328451 656456696 656456695 173767743 656456691 75050008 746626787"/>
    </vehicle>
    <vehicle id="bg30" type="bus" depart="119.00">
        <route edges="635751294 654902921 635748328 175014497 173767728#1 482088811 482087547#1 641546938 482086718 194654932#0 194654932#1 656456706 656456704 744577281 656456710 539328450 633247277 633247278#0 173767739 173767741#1 479535239 632708594#1 479563865 265150865 479565801 74860023#0 74860023#1 -1333303694#1 -1333303694#0 1333303693#0 1333303693#1"/>
    </vehicle>
    <vehicle id="bg32" type="truck" depart="121.00">
        <route edges="75044376"/>
    </vehicle>
    <vehicle id="bg33" type="truck" depart="122.00">
        <route edges="826035492"/>
    </vehicle>
    <vehicle id="bg34" type="car" depart="124.00">
        <route edges="747247429#1 747247427#1 823166438 227086704#0 227086704#1 747247425#1 656456712#1 656456702#0 656456702#1 173767739 119941775 325024328#1 539328451 656456696 656456695 173767743 656456697 173767744 635722833 656645140"/>
    </vehicle>
    <vehicle id="bg35" type="bus" depart="132.00">
        <route edges="747390000 639856644 639856874#1 632404322#0 632404322#1 673292061#0 673292061#1 173767970#1 173767970#2 632418151#1 632410778#1 22903881 824531527 655137625#1 655137625#2 641204032 824531529 824531532 654854822#1 539418280#0 539418280#1 173767708#0 173767708#1 826036847 119937078 654882142 654882143 654882143-AddedOffRampEdge 1183482555 632361584"/>
    </vehicle>
    <vehicle id="bg37" type="bus" depart="137.00">
        <route edges="173767970#1 173767970#2 632418151#1 632410778#1 22903881 824531527 655137625#1 655137625#2 641204032 824531529 824531532 654854822#1 539418280#0 539418280#1 173767708#0 173767708#1 826036847 119937078"/>
    </vehicle>
    <vehicle id="bg38" type="car" depart="139.00">
        <route edges="482046821 741953050 482047176 528902481#1 482115540#1 639073445 673267919 747247423#0 747247423#1 823166439 747247422 747247421 639868067#0 639868067#1 643394169 22904193"/>
    </vehicle>
    <vehicle id="bg39" type="car" depart="149.00">
        <route edges="380710424#1 -634986364 -645285191 -664945578 -664945576#0 -640329257 -640329258 632435677#1 761129507 632709465 617923185#1 654874185 654874184#0 -744907216"/>
    </vehicle>
    <vehicle id="bg41" type="car" depart="157.00">
        <route edges="-632718892 -644471291 -646702829 -670654381 120423211 907602903#1 759767860#1 252391651 646702829 644471291 632718892 632717745 632434965#0 635329415#0 635329415#1 640195336#1 640195336#2 640195331 22903884#1 826035492 826035676 826036530 632419550#0 325024347#1 724998207#1 173896289#0 173896289#1 173896289#2 173896289#3 173896289#4 173896289#5 724998206 174886273#0 22903988#1 244362471 512870442 173767740 642134875 630398747#1 479565801 74860023#0 74860023#1 1333303692 632442406 119941775 325024328#1 539328451 656456696 656456695 173767743 656456697 173767744 635722833 656645140 265150808 635725980 536655848 536655847#0 536655847#1 652274162 641568874 635585660#0 617923185#1 654874185 654874184#0 200159290#1 635639037 635647442 635638446 635719502#1"/>
    </vehicle>
    <vehicle id="bg43" type="car" depart="162.00">
        <route edges="656456712#1"/>
    </vehicle>
    <vehicle id="bg45" type="car" depart="179.00">
        <route edges="635719502#1 744616095#1 744616094 635745924 538210923 735137375#1 824070958 668611375#0 668611375#1 668589554 660074445 482084331 175014495#1 512870466 173767742 632719735 265150809 654866555 539328450 633247277 633247278#0 173767739 173767741#1 479535239 632708594#1 479563865 265150865 1103094380#0 1103094380#1 750634242 512870445#0 512870445#1 747389999#1"/>
    </vehicle>
    <vehicle id="bg46" type="car" depart="180.00">
        <route edges="158232313#3 158232313#4 158232313#5 639268830 632697478#0 632697478#1 635752721 482087548 482088807 383286539#0 173767728#1 482088811 482087547#1 641546938 482086718 194654932#0 194654932#1 656456706 656456704 744577281 656456710 539328450 633247277 633247278#0 632717729"/>
    </vehicle>
    <vehicle id="bg47" type="truck" depart="180.00">
        <route edges="528461138#0"/>
    </vehicle>
    <vehicle id="bg48" type="bus" depart="181.00">
        <route edges="479773435 74592215 635320462 635320464 635320461 479774594#0 479774594#1 44628809 479774980#0 479774980#1 654864034 654864035 173767976#0 173767739 539328454 635302124 262961712"/>
    </vehicle>
    <vehicle id="bg49" type="car" depart="182.00">
        <route edges="173896289#1 173896289#2 173896289#3 173896289#4 173896289#5 724998206 174886273#0 22903988#1 244362471 512870442 173767740 642134875 630398747#1 479565801 74860023#0 74860023#1 1333303692 632442406 119941775 325024328#1 539328451 656456696 656456695 173767743 656456691 75050008 746626787 175014492#0 175014492#1 482087543 482087544 482087545 482087549#0 482087549#1 482088813 635752351#1 635752721 482087548 482088807 383286539#0 383286530#1 175014490 482071860 482071861 482071862 482053310 482053314 482071863#0 325024327#1 632733515 640014563#0 640014564#1 632733518#0 632733518#1 158232311#1"/>
    </vehicle>
    <vehicle id="bg51" type="car" depart="184.00">
        <route edges="482091079 482091077#0 464307247#1 175847333 744667805 617923186#0 617923187#1 175847336 660073260#1 482083280 482083282 712075703#0 712075703#1 536655846 380698805 380710424#0 380710424#1 -634986364 -645285191 -664945578 -664945576#0 -640329257 -640329258"/>
    </vehicle>
    <vehicle id="bg52" type="car" depart="185.00">
        <route edges="641308557 664961871#0 747390011 539418286#1 265150865 479565801 74860023#0 74860023#1 1333303692 632442406 119941775 325024328#1 539328451 656456696 656456695 173767743 656456697 173767744 635722833 656645140 265150808 635725980"/>
    </vehicle>
    <vehicle id="bg53" type="truck" depart="186.00">
        <route edges="482080587#1 652152115 652152114 632703919 652152112 482082378#0 617923187#1 175847336 660073260#1 482083280 482083282 712075703#0 712075703#1 536655846 536655845 482083284 668589554 660074445 482084331 175014495#1 512870466 173767742 632719735 265150809 654866555 539328450 633247277 633247278#0 173767739 173767741#1 479535239 632708594#1 479563865 630398746#0 630398746#1 74860024 512870443 173896233 632406819#0 539418601#1 639994357 640248071 244362485#1 479535741#0 74860019#1 74860019#2 39959157#1 655148615"/>
    </vehicle>
    <vehicle id="bg55" type="truck" depart="190.00">
        <route edges="120423243#1"/>
    </vehicle>
    <vehicle id="bg57" type="car" depart="203.00">
        <route edges="-646226499"/>
    </vehicle>
    <vehicle id="bg60" type="car" depart="207.00">
        <route edges="639275213#1 736727134 632722306 464307247#1 175847333 744667805 617923186#0 617923187#1 175847336 660073260#1 482083280 482083282 712075703#0 712075703#1 536655846 536655845 482083284 668589554 660074445 482084331 175014495#1 512870466 173767742 632719735 265150809 654866555 539328450 633247277 633247278#0 173767739 173767741#1 479535239 632708594#1 479563865 630398746#0 630398746#1 74860024 512870443 173896233 632406819#0 651931640#1 74592233#0 74592233#1 74592233#2 632412033#0 632412033#1 655137119#0 724998207#1 173896289#0 173896289#1"/>
    </vehicle>
    <vehicle id="bg61" type="motorcycle" depart="209.00">
        <route edges="656456704 744577281 656456710 539328450 633247277 633247278#0 173767739 119941775 325024328#1 539328451 656456696 656456695 173767743 656456697 173767744 635722833 656645140 265150808 668180599#1 673207937 668611374 635731829 786418678 383286540 632413087 177430569 637959070 637959071 637959072 671522621#0 482089888"/>
    </vehicle>
    <vehicle id="bg62" type="car" depart="210.00">
        <route edges="651931640#1 74592233#0 74592233#1 74592233#2 632412033#0 632412033#1 655137119#0 724998207#1 173896289#0 173896289#1 173896289#2 173896289#3 173896289#4 173896289#5 724998206 174886273#0 539418601#1 639994357 640248071 244362485#1 479535741#0 638914474#1 479553994#0 479553994#1 479553994#2 638914473 529549927#0 529549927#1 649397699#0 649397699#1 649397699#2 638915815#0 638915815#1"/>
    </vehicle>
    <vehicle id="bg66" type="bus" depart="231.00">
        <route edges="482103446#0 482103446#1 654874185 654874184#0 464307247#1 175847333 744667805 617923186#0 617923187#1 175847336 660073260#1 482083280 482083282 712075703#0 712075703#1 536655846 536655845 482083284 668589554 660074445 482084331 175014495#1 512870466 173767742 632719735 265150809 654866555 539328450 633247277 633247278#0 173767739 539328454 635302124 262961712 479774986#1 479774985#0 479774985#1 75334689 44638548"/>
    </vehicle>
    <vehicle id="bg67" type="car" depart="235.00">
        <route edges="1220000765#1 1187830743#0 1187830743#1 1187830743#3 824070960 482089865 673207938#0 673207938#1 824070958 668611375#0 668611375#1 668589554 660074445 482084331 175014495#1 512870466 173767742 632719735 265150809 654866555 539328450 633247277 633247278#0 173767739 119941775 325024328#1 539328451"/>
    </vehicle>
    <vehicle id="bg69" type="car" depart="241.00">
        <route edges="632410778#1"/>
    </vehicle>
    <vehicle id="bg70" type="car" depart="245.00">
        <route edges="632717729 173767997#0 173767997#1 479120533#1 741859526 75044382-AddedOnRampEdge 75044382"/>
    </vehicle>
    <vehicle id="bg73" type="car" depart="248.00">
        <route edges="482046821 741953050 482047176 482047177 482053300 632727858 482053304 75050017#1 173767587 482053293"/>
    </vehicle>
    <vehicle id="bg74" type="car" depart="254.00">
        <route edges="646226504 646794847 641308557 664961871#0 539418287 747390007#0 638915813 747777160 638914476#0 638914476#1"/>
    </vehicle>
    <vehicle id="bg75" type="bus" depart="257.00">
        <route edges="325024347#1 724998207#1 173896289#0 173896289#1 173896289#2 173896289#3 173896289#4 173896289#5 724998206 174886273#0 22903988#1 244362471 512870442 173767740 642134875 630398747#1 479565801 479564266 479552276#0 479552276#1 539418287 747390007#0 638915813 747777160 638914476#0 638914476#1 287903593#0 287903593#1 287903593#2 638914475#0"/>
    </vehicle>
    <vehicle id="bg76" type="car" depart="258.00">
        <route edges="641308557 664961871#0 747390011 539418286#1 265150865 479565801 74860023#0 74860023#1 1333303692 632442406 119941775 325024328#1 539328451 656456696 656456695 173767743 656456697 173767744 635722833 656645140 265150808 635725980 380710424#0 380710424#1 640024805#1 640024805#2 350351316#1 350351316#2 194654917"/>
    </vehicle>
    <vehicle id="bg77" type="car" depart="266.00">
        <route edges="44628807#0"/>
    </vehicle>
    <vehicle id="bg81" type="car" depart="280.00">
        <route edges="673207940#0 673207940#1 673207937 668611374 1220000767 194654914#0 482089861 482089858 639971296#0 639971296#1 639971296#2 639973431#0 639973431#1"/>
    </vehicle>
    <vehicle id="bg82" type="car" depart="283.00">
        <route edges="641308557 664961871#0 539418287 747390007#0 638915813 747777160 638914476#0 638914476#1 287903593#0 287903593#1 287903593#2 638914475#0 74860019#1"/>
    </vehicle>
    <vehicle id="bg83" type="car" depart="290.00">
        <route edges="33738141#1 173767587 482053293 823170357 652382673 823169627 532436187 482047176 482047177 482053300 632727858 482053304 173767728#1 482088811 482087547#1 641546938 482086718 194654932#0 194654932#1 656456706 656456704 744577281 656456710 539328450 633247277 633247278#0 173767739 173767741#1 479535239 632708594#1 479552276#0 479552276#1 539418287 747390007#0 638915813"/>
    </vehicle>
    <vehicle id="bg85" type="bus" depart="295.00">
        <route edges="158232311#1"/>
    </vehicle>
    <vehicle id="bg86" type="car" depart="298.00">
        <route edges="746628430 746628429#0 746628429#1 746626786 746626789 746628428 656456706 656456704 744577281 656456710 539328450 633247277 633247278#0 173767739 539328454 635302124 262961712 479774986#1 479774985#0 479774985#1 75334689 155949887 119937078"/>
    </vehicle>
    <vehicle id="bg90" type="car" depart="318.00">
        <route edges="175014493 635392774 635391879#0 194654916#1 649163256 635393381 635689167 482053322 482053318 537148259 654880115 325024313#0 173767728#1 482088811 482087547#1 482086716#1 747247414 756808374#0 756808374#1"/>
    </vehicle>
    <vehicle id="bg91" type="bus" depart="321.00">
        <route edges="649816717 632390287 325024339#0 632390289#1 632390289#2 632390288 744907219 175014499#1 175014499#2 635751294 654902921 635748328 175014497 173767728#1 482088811 482087547#1 641546938 482086718 194654932#0 194654932#1 656456706 656456704 744577281 656456710 539328450 633247277 633247278#0 173767739 539328454 635302124 262961712 479774986#1 479774985#0 479774985#1 75334689 44638548 22903882#0 22903882#1 654860012 644087396 639569894 641575650 539418281#0 824531533 642173666 635300929 824531530"/>
    </vehicle>
    <vehicle id="bg92" type="truck" depart="323.00">
        <route edges="636805724#0 636805724#1 784116305#1 636805719 747390000 639856644 639856874#1 632404322#0 632404322#1 673292061#0 673292061#1 724998207#1 173896289#0 173896289#1 173896289#2 173896289#3 173896289#4 173896289#5 724998206 174886273#0 539418601#1 639994357 640248071 244362485#1 479535741#0 74860019#1"/>
    </vehicle>
    <vehicle id="bg93" type="car" depart="323.00">
        <route edges="119937078"/>
    </vehicle>
    <vehicle id="bg94" type="car" depart="326.00">
        <route edges="638914475#0 725220564 74860017#0 74860017#1 725221150 725221151#0 22903988#1 244362471 512870442 173767740 642134875 630398747#1 479565801 74860023#0 74860023#1 1333303692 632442406 119941775 325024328#1 539328451 656456696 656456695 173767743 656456691 75050008 746626787 175014492#0 175014492#1 482087543 482087544 482087545 482087549#0 482087549#1 482088813 635752351#1 635752721 482087548 482088807 383286539#0 383286530#1 175014490 482071860 482071861 482071862 482053310 482053314 482071863#0 325024327#1 632733515 640014563#0 635374658#1 658660966 658660962 658660967 658660968 368007657#1"/>
    </vehicle>
    <vehicle id="bg95" type="car" depart="331.00">
        <route edges="-664945160 -632435677#0 640329257 664945581 664945576#1 645285191 -664947336 194654917 747390016#1 536655849 536655846 536655845 482083284 668589554 660074445 482084331 175014495#1 512870466 173767742 632719735 265150809 654866555 539328450 633247277 633247278#0 173767739 173767741#1 479535239 632708594#1 479563865 630398746#0 630398746#1 74860024 512870443 173896233 632406819#0 651931640#1 74592233#0 74592233#1 74592233#2 632412033#0 632412033#1 655137119#0 173767970#1 173767970#2 632418151#1 632405236#1 22903883#0 22903883#1 632405235 640195334#1 -632434965#0 -632717745 -632718892 -644471291"/>
    </vehicle>
    <vehicle id="bg96" type="bus" depart="335.00">
        <route edges="673207940#1"/>
    </vehicle>
    <vehicle id="bg97" type="car" depart="343.00">
        <route edges="158232311#1 635403808 635396719 635396720#0 632390289#1 632390289#2 632390288 744907219 175014499#1 175014499#2 635751294 654902921 635748328 175014497 173767728#1 482088811 482087547#1 641546938 482086718 194654932#0 194654932#1 656456706 656456704 744577281 656456710 539328450 633247277 633247278#0 173767739 173767741#1 479535239 632708594#1 479552276#0 479552276#1 539418287 747390007#0 638915813 747777160 638914476#0 638914476#1 287903593#0"/>
    </vehicle>
    <vehicle id="bg98" type="car" depart="344.00">
        <route edges="1333303694#1 1333303692 632442406 119941775 325024328#1 539328451 656456696 656456695 173767743 656456691 75050008 746626787 175014492#0 175014492#1 482087543 482087544 482087545 482087549#0 482087549#1 482088813 635752351#1 635752721 482087548 482088807 383286539#0 75050017#1 173767587 482053293 823170357 652382673 823169627 532436187 482047176 528902481#1 482115540#1 639073445 673267919 747247423#0 747247423#1 823166439 747247422 -639897073#1 -639897073#0 -644412090 -645383960 -465270688 -645383964 -645383968 -668576493 -645324782 -645324783 529549239 646810207#0 713264048#0 713264048#1 713264048#2 -645372831 -645372837 -465270689"/>
    </vehicle>
    <vehicle id="bg99" type="car" depart="346.00">
        <route edges="644920057 643607580 643607581 644405728 116688048 644405729 644404697#0 644404698 644352005 664957720 532415673#1 641575650 539418281#0 824531533 642173666 635300929 824531530 641204030#0 641204030#1 824531526 824531525 655135994#0 655135994#1 325024347#1 724998207#1 173896289#0 173896289#1 173896289#2 173896289#3 173896289#4 173896289#5 724998206 174886273#0 22903988#1 244362471 512870442 173767740 642134875 630398747#1 479565801 74860023#0 74860023#1 1333303692 632442406 119941775 325024328#1 539328451 656456696 656456695 173767743 656456697 173767744 635722833 656645140 265150808 635725980 536655848 536655847#0 536655847#1"/>
    </vehicle>
    <vehicle id="bg100" type="car" depart="356.00">
        <route edges="482089861 482089858 639971296#0 639971296#1 639971296#2 639973431#0 639973431#1 635399928#0 635689167 482053322 482053318 537148259 654880115 325024313#0 173767728#1 482088811 482087547#1 641546938 482086718 194654932#0 194654932#1 656456706 656456704 744577281 656456710 539328450 633247277 633247278#0 173767739 173767741#1 479535239 632708594#1 479563865 630398746#0 630398746#1 74860024 512870443 173896233 632406819#0 651931640#1 74592233#0 74592233#1 74592233#2 632412033#0 632412033#1 655137119#0 173767970#1 173767970#2 632418151#1 632405236#1 22903883#0 22903883#1 632405235 640195334#1 640193228 640193230 -635341773#0 -647097916 -656246556 -120423243#1 -120423243#0 -647097768#1 647097768#1 120423243#0 120423243#1"/>
    </vehicle>
    <vehicle id="bg103" type="car" depart="363.00">
        <route edges="1333303693#1 479564266 479563865 630398746#0 630398746#1 74860024 512870443 173896233 632406819#0 651931640#1 74592233#0 74592233#1"/>
    </vehicle>
    <vehicle id="bg105" type="motorcycle" depart="365.00">
        <route edges="479544596 39959155#1 637963121#0 638914474#1 479553994#0 479553994#1 479553994#2 638914473 635715767 641549243 479562489#1 824496778 22903984 824497092 646668613 646226502 646226504"/>
    </vehicle>
    <vehicle id="bg106" type="car" depart="365.00">