<?xml version='1.0' encoding='utf-8'?>
<trips><vType id="car" accel="2.6" decel="4.5" sigma="0.5" length="5" maxSpeed="25" color="white" /><vType id="bus" accel="2.6" decel="4.5" sigma="0.5" length="12" maxSpeed="18" color="red" /><vType id="truck" accel="2.6" decel="4.5" sigma="0.5" length="8" maxSpeed="20" color="yellow" /><vType id="motorcycle" accel="2.6" decel="4.5" sigma="0.5" length="2" maxSpeed="28" color="blue" /><vType id="delivery" accel="2.6" decel="4.5" sigma="0.5" length="5" maxSpeed="20" color="green" /><trip id="bg0" type="car" depart="8" fromLonLat="103.74225031547324,1.3367129870967234" toLonLat="103.7522936026449,1.3282670284599203" /><trip id="bg1" type="car" depart="13" fromLonLat="103.7406461219396,1.3220217948168926" toLonLat="103.73800899179636,1.3354855535950334" /><trip id="delivery531" type="delivery" depart="13" from="647097916" to="934118287#0" /><trip id="delivery137" type="delivery" depart="21" from="711695945" to="482481147#0" /><trip id="bg2" type="car" depart="25" fromLonLat="103.74827193127183,1.3192887207485091" toLonLat="103.7392835271408,1.3338945523248935" /><trip id="bg3" type="car" depart="26" fromLonLat="103.73710922545683,1.3347616650304583" toLonLat="103.73254826164359,1.3183158749623909" /><trip id="bg4" type="bus" depart="29" fromLonLat="103.74551389812105,1.325249932905773" toLonLat="103.74649192035731,1.3262025171812086" /><trip id="bg5" type="car" depart="34" fromLonLat="103.72738022093795,1.3208690735301591" toLonLat="103.7468507199389,1.3311172585557556" /><trip id="bg6" type="car" depart="38" fromLonLat="103.7375269212171,1.3377905273287656" toLonLat="103.74592315246981,1.3238443542494964" /><trip id="bg7" type="truck" depart="38" fromLonLat="103.74133085128074,1.3321255774979488" toLonLat="103.73480709794171,1.3135441404575925" /><trip id="bg8" type="motorcycle" depart="47" fromLonLat="103.74752577195522,1.3215674345756512" toLonLat="103.73991177317568,1.322073248064095" /><trip id="bg9" type="bus" depart="53" fromLonLat="103.7434420241383,1.3373564346866251" toLonLat="103.73987165437019,1.3319121774406952" /><trip id="bg10" type="car" depart="54" fromLonLat="103.72961512229122,1.3223809251333185" toLonLat="103.72813551847273,1.3252032953311146" /><trip id="delivery1585" type="delivery" depart="54" from="-747389994" to="-646697632" /><trip id="bg11" type="bus" depart="60" fromLonLat="103.75005352951861,1.3285721562513313" toLonLat="103.7391773873588,1.333901552743632" /><trip id="bg12" type="car" depart="64" fromLonLat="103.7480908638595,1.318709743063176" toLonLat="103.74874276948708,1.3365988294435498" /><trip id="bg13" type="truck" depart="64" fromLonLat="103.75012276938506,1.3238352724976683" toLonLat="103.74977826107794,1.336585430751487" /><trip id="bg14" type="bus" depart="64" fromLonLat="103.73774633261408,1.3260580264375943" toLonLat="103.7417483161003,1.3233784847678185" /><trip id="bg15" type="car" depart="66" fromLonLat="103.73939391783371,1.3201677313611238" toLonLat="103.73969759341823,1.3308175447104764" /><trip id="bg16" type="motorcycle" depart="67" fromLonLat="103.74880319305517,1.3342278696629657" toLonLat="103.74676501461164,1.3203340218360662" /><trip id="bg17" type="motorcycle" depart="69" fromLonLat="103.75017781883479,1.3341054690636844" toLonLat="103.74872765328831,1.3185823485597463" /><trip id="bg18" type="bus" depart="78" fromLonLat="103.74339396154139,1.3213242828725298" toLonLat="103.73685986754916,1.3228495619609197" /><trip id="bg19" type="car" depart="80" fromLonLat="103.75014892886044,1.3366784233571196" toLonLat="103.74531385836532,1.3211163180907395" /><trip id="delivery1668" type="delivery" depart="84" from="711668536" to="-189554576#10" /><trip id="bg20" type="car" depart="88" fromLonLat="103.74549907924774,1.3250521998093427" toLonLat="103.74236750979995,1.321071583447414" /><trip id="bg21" type="bus" depart="89" fromLonLat="103.7370684113878,1.3234672651521535" toLonLat="103.74563170142119,1.3302729997660478" /><trip id="bg22" type="car" depart="96" fromLonLat="103.73681006631462,1.3350800771723481" toLonLat="103.74238067420613,1.3348526637401739" /><trip id="bg23" type="bus" depart="97" fromLonLat="103.73816201355199,1.3330687026975314" toLonLat="103.75075002113337,1.3120122842383" /><trip id="delivery1222" type="delivery" depart="97" from="1243923054" to="826074998" /><trip id="bg24" type="bus" depart="100" fromLonLat="103.73846498775556,1.3209623179666967" toLonLat="103.74388597234596,1.3315306381793173" /><trip id="bg25" type="motorcycle" depart="103" fromLonLat="103.73133846866382,1.3120419800639478" toLonLat="103.75086519194815,1.320763298864346" /><trip id="bg26" type="car" depart="105" fromLonLat="103.7282016568199,1.325389837898949" toLonLat="103.74852802990334,1.3329445917405578" /><trip id="bg27" type="car" depart="105" fromLonLat="103.75054171663767,1.3269346986756463" toLonLat="103.74342353357798,1.3369584418053964" /><trip id="bg28" type="truck" depart="107" fromLonLat="103.73804802552317,1.3200094793096582" toLonLat="103.75045853871757,1.3288201982101" /><trip id="bg29" type="motorcycle" depart="108" fromLonLat="103.7463064698427,1.3263002904898595" toLonLat="103.74447041324864,1.328474062459591" /><trip id="bg30" type="bus" depart="119" fromLonLat="103.74789635349742,1.3329044701725452" toLonLat="103.74531385836532,1.3211163180907395" /><trip id="bg31" type="car" depart="120" fromLonLat="103.73028962993801,1.3221244840327682" toLonLat="103.74405465072664,1.3352683320909282" /><trip id="bg32" type="truck" depart="121" fromLonLat="103.74916823133161,1.3247934778908188" toLonLat="103.73451459943536,1.3195541534651878" /><trip id="bg33" type="truck" depart="122" fromLonLat="103.73526619319874,1.3184499567862307" toLonLat="103.73301727274978,1.3178125777590253" /><trip id="bg34" type="car" depart="124" fromLonLat="103.74607215574174,1.3261687459174807" toLonLat="103.74425763293131,1.3284120852878618" /><trip id="bg35" type="bus" depart="132" fromLonLat="103.73965052331802,1.322250578763936" toLonLat="103.7274359719275,1.3252144208919094" /><trip id="bg36" type="bus" depart="133" fromLonLat="103.73067943757704,1.3250392654872511" toLonLat="103.7363939262333,1.3204770772130086" /><trip id="bg37" type="bus" depart="137" fromLonLat="103.73804802552317,1.3200094793096582" toLonLat="103.73111427670604,1.3251135685191122" /><trip id="bg38" type="car" depart="139" fromLonLat="103.74977125905562,1.3276560153451635" toLonLat="103.74769422374823,1.3252576462592576" /><trip id="delivery886" type="delivery" depart="147" from="-1040562593#0" to="259693414#1" /><trip id="bg39" type="car" depart="149" fromLonLat="103.74026862865271,1.3313425425604617" toLonLat="103.73868350524904,1.3352298364129938" /><trip id="bg40" type="car" depart="155" fromLonLat="103.72722430447394,1.320327196430763" toLonLat="103.74748529218883,1.3295126221092362" /><trip id="bg41" type="car" depart="157" fromLonLat="103.73357853822954,1.3156094020432128" toLonLat="103.7401438606293,1.334228487319492" /><trip id="bg42" type="bus" depart="158" fromLonLat="103.73655135476227,1.321055046208746" toLonLat="103.75197598897144,1.312618198644894" /><trip id="bg43" type="car" depart="162" fromLonLat="103.74610451732813,1.3252588267299956" toLonLat="103.73254826164359,1.3183158749623909" /><trip id="bg44" type="car" depart="164" fromLonLat="103.74747321107749,1.3352821174574476" toLonLat="103.75153788113371,1.3129689286679218" /><trip id="delivery1253" type="delivery" depart="174" from="-747041526#0" to="350351316#1" /><trip id="bg45" type="car" depart="179" fromLonLat="103.7401438606293,1.334228487319492" toLonLat="103.74401942924246,1.32029807514735" /><trip id="bg46" type="car" depart="180" fromLonLat="103.74396885560196,1.3313071767916704" toLonLat="103.74579186753236,1.3238152526932483" /><trip id="bg47" type="truck" depart="180" fromLonLat="103.74074215739914,1.322091129059056" toLonLat="103.75196809737804,1.3339783049618528" /><trip id="bg48" type="bus" depart="181" fromLonLat="103.72839056038136,1.324687498927364" toLonLat="103.74357932522456,1.3235423207601547" /><trip id="bg49" type="car" depart="182" fromLonLat="103.73991442027308,1.319851600520651" toLonLat="103.74632836466664,1.3365056921139562" /><trip id="bg50" type="car" depart="183" fromLonLat="103.74542423233243,1.3210880630701296" toLonLat="103.74912382695031,1.3122091923062869" /><trip id="bg51" type="car" depart="184" fromLonLat="103.7391848257672,1.3358828773230218" toLonLat="103.73700646523167,1.3314879354849036" /><trip id="bg52" type="car" depart="185" fromLonLat="103.74651533695214,1.3212706949278379" toLonLat="103.74109977124101,1.3311117778617145" /><trip id="bg53" type="truck" depart="186" fromLonLat="103.73500043165848,1.3365211021452523" toLonLat="103.75069253060234,1.3172029686287727" /><trip id="bg54" type="car" depart="188" fromLonLat="103.73558000675003,1.3352806931585266" toLonLat="103.74648620609328,1.3296956366201436" /><trip id="bg55" type="truck" depart="190" fromLonLat="103.730983178806,1.313722818349678" toLonLat="103.74901921923201,1.3342706730780887" /><trip id="bg56" type="car" depart="195" fromLonLat="103.74616148907664,1.334174235493253" toLonLat="103.74679657980768,1.3228019903973258" /><trip id="bg57" type="car" depart="203" fromLonLat="103.72877503136499,1.3229014857641803" toLonLat="103.73095775702497,1.3350763204273073" /><trip id="bg58" type="bus" depart="203" fromLonLat="103.75153596055804,1.31683417282443" toLonLat="103.74218245897588,1.3338936936145582" /><trip id="bg59" type="car" depart="206" fromLonLat="103.74600113266935,1.31852117974645" toLonLat="103.75237837422587,1.3129007890272788" /><trip id="bg60" type="car" depart="207" fromLonLat="103.73792511800629,1.3355350771650571" toLonLat="103.7414362967953,1.32050814371782" /><trip id="bg61" type="motorcycle" depart="209" fromLonLat="103.74520937822926,1.3278293449344942" toLonLat="103.7395534075203,1.3349509739118082" /><trip id="bg62" type="car" depart="210" fromLonLat="103.7436501436317,1.3188892973239443" toLonLat="103.74751666825298,1.3203648850283787" /><trip id="bg63" type="car" depart="215" fromLonLat="103.73802813575712,1.3198880844644527" toLonLat="103.74922515473727,1.3281223739102364" /><trip id="bg64" type="car" depart="220" fromLonLat="103.7354215586726,1.3211544155611594" toLonLat="103.7495492098922,1.3144965501307144" /><trip id="bg65" type="motorcycle" depart="225" fromLonLat="103.73748360800897,1.3241773339273595" toLonLat="103.7306786216884,1.3252296629998297" /><trip id="bg66" type="bus" depart="231" fromLonLat="103.73750776234496,1.3335973200443254" toLonLat="103.73945268637618,1.3262318431729063" /><trip id="bg67" type="car" depart="235" fromLonLat="103.74382807867255,1.3301443598230909" toLonLat="103.74552046936554,1.3254071398214478" /><trip id="bg68" type="bus" depart="239" fromLonLat="103.74205178780859,1.3360160524419287" toLonLat="103.74882006932796,1.334088222031219" /><trip id="bg69" type="car" depart="241" fromLonLat="103.73625288155772,1.3203781426282193" toLonLat="103.74962746229133,1.30748066760904" /><trip id="delivery1728" type="delivery" depart="243" from="635300929" to="-529549234#1" /><trip id="bg70" type="car" depart="245" fromLonLat="103.74592315246981,1.3238443542494964" toLonLat="103.75222806266336,1.3218515716679073" /><trip id="bg71" type="car" depart="245" fromLonLat="103.75193069969778,1.3261315657481467" toLonLat="103.74870346874731,1.3198606797188213" /><trip id="bg72" type="car" depart="245" fromLonLat="103.73638433375856,1.3344143220833398" toLonLat="103.73760538508266,1.335488420317169" /><trip id="bg73" type="car" depart="248" fromLonLat="103.7510739911258,1.3278802729596952" toLonLat="103.74831679141617,1.330537765180999" /><trip id="bg74" type="car" depart="254" fromLonLat="103.74726249623801,1.3220210026935004" toLonLat="103.74944812483652,1.3191481220293846" /><trip id="delivery1601" type="delivery" depart="256" from="679777197" to="74592233#2" /><trip id="bg75" type="bus" depart="257" fromLonLat="103.73748726600206,1.321207481945058" toLonLat="103.74831732664926,1.318186960769321" /><trip id="bg76" type="car" depart="258" fromLonLat="103.74651533695214,1.3212706949278379" toLonLat="103.73965647581812,1.3309104163676526" /><trip id="bg77" type="car" depart="266" fromLonLat="103.74587906136715,1.3243113295791797" toLonLat="103.7329979697288,1.3199075802849916" /><trip id="bg78" type="car" depart="268" fromLonLat="103.74741552430297,1.3313514534011766" toLonLat="103.75184858443889,1.3275142494594543" /><trip id="bg79" type="bus" depart="271" fromLonLat="103.74573177936733,1.3362055410100533" toLonLat="103.74912153257333,1.3128475941503042" /><trip id="bg80" type="bus" depart="275" fromLonLat="103.75012276938506,1.3238352724976683" toLonLat="103.74945446549187,1.3177878328752308" /><trip id="bg81" type="car" depart="280" fromLonLat="103.74079249129836,1.331319023360242" toLonLat="103.74381201285453,1.333120544046963" /><trip id="bg82" type="car" depart="283" fromLonLat="103.74642249208483,1.3212898233649808" toLonLat="103.749753329258,1.3189536258434094" /><trip id="bg83" type="car" depart="290" fromLonLat="103.74726328856869,1.3316995210698934" toLonLat="103.74785270017948,1.3205254248866276" /><trip id="bg84" type="car" depart="292" fromLonLat="103.72738563751929,1.3255816227109967" toLonLat="103.74392872935746,1.3345866302513634" /><trip id="bg85" type="bus" depart="295" fromLonLat="103.72732938001647,1.3336517416699936" toLonLat="103.7463159622099,1.3368607958313476" /><trip id="bg86" type="car" depart="298" fromLonLat="103.7441431523498,1.328919184329922" toLonLat="103.73174561575608,1.3252746242129594" /><trip id="bg87" type="car" depart="300" fromLonLat="103.74579186753236,1.3238152526932483" toLonLat="103.7370684113878,1.3234672651521535" /><trip id="bg88" type="car" depart="303" fromLonLat="103.74551182735499,1.3209642803739585" toLonLat="103.74007570849643,1.3369356400476604" /><trip id="bg89" type="car" depart="307" fromLonLat="103.7388479351046,1.3218248697544122" toLonLat="103.74438528457954,1.3340239895539867" /><trip id="bg90" type="car" depart="318" fromLonLat="103.74654128870843,1.3362856440703106" toLonLat="103.74682242159176,1.328958452798782" /><trip id="bg91" type="bus" depart="321" fromLonLat="103.74861369365803,1.3364651672097454" toLonLat="103.73756072694509,1.3229116986702572" /><trip id="bg92" type="truck" depart="323" fromLonLat="103.7417141356923,1.3214752938641692" toLonLat="103.74789305459704,1.3174632290983102" /><trip id="bg93" type="car" depart="323" fromLonLat="103.73100709444083,1.3255809605964661" toLonLat="103.74223059480353,1.3204438760670958" /><trip id="bg94" type="car" depart="326" fromLonLat="103.74825713428649,1.318506312598922" toLonLat="103.74756302879578,1.3330757945081393" /><trip id="bg95" type="car" depart="331" fromLonLat="103.73699408129285,1.3325113769758006" toLonLat="103.73310370730596,1.3157152577679134" /><trip id="bg96" type="bus" depart="335" fromLonLat="103.73285597556469,1.3181332323204276" toLonLat="103.74102251829186,1.331397019621524" /><trip id="bg97" type="car" depart="343" fromLonLat="103.74631875017107,1.3365025213944266" toLonLat="103.74879399344437,1.3189093623457309" /><trip id="bg98" type="car" depart="344" fromLonLat="103.74534913006892,1.3212100430874798" toLonLat="103.74908001239189,1.3240103990390728" /><trip id="bg99" type="car" depart="346" fromLonLat="103.74144840229921,1.3235950515128667" toLonLat="103.73948775593972,1.3318628651624311" /><trip id="bg100" type="car" depart="356" fromLonLat="103.74262657246696,1.332523141114424" toLonLat="103.730983178806,1.313722818349678" /><trip id="bg101" type="car" depart="357" fromLonLat="103.74701847776933,1.3265390819432747" toLonLat="103.74342353357798,1.3369584418053964" /><trip id="bg102" type="car" depart="358" fromLonLat="103.73512814558502,1.31508015332117" toLonLat="103.73094712101869,1.3238751268080073" /><trip id="bg103" type="car" depart="363" fromLonLat="103.74531385836532,1.3211163180907395" toLonLat="103.74279655653741,1.3194416985137631" /><trip id="bg104" type="bus" depart="364" fromLonLat="103.7395875276402,1.336597826125065" toLonLat="103.74849435590487,1.336445659060769" /><trip id="bg105" type="motorcycle" depart="365" fromLonLat="103.7487073961233,1.316494368360496" toLonLat="103.74652591977846,1.3218518472128624" /><trip id="bg106" type="car" depart="365" fromLonLat="103.74766429288417,1.3254449548796488" toLonLat="103.7415891009362,1.332019702026055" /><trip id="bg107" type="car" depart="367" fromLonLat="103.74026139891872,1.3326602239941092" toLonLat="103.74334838120376,1.328312395575726" /><trip id="bg108" type="car" depart="370" fromLonLat="103.73750116127582,1.3269592404611494" toLonLat="103.74690731788779,1.3281277047284277" /><trip id="bg109" type="car" depart="383" fromLonLat="103.73460945937396,1.3130416778265135" toLonLat="103.7433721202772,1.3371501709343059" /><trip id="bg110" type="bus" depart="389" fromLonLat="103.7475234624476,1.3324108696292567" toLonLat="103.74943669581458,1.3295770238073013" /><trip id="bg111" type="car" depart="393" fromLonLat="103.7422238063177,1.3367080890925787" toLonLat="103.75266527266535,1.3146420263093277" /><trip id="bg112" type="motorcycle" depart="393" fromLonLat="103.7500212874665,1.3247698511986528" toLonLat="103.73471679741861,1.3209908817953255" /><trip id="bg113" type="car" depart="403" fromLonLat="103.74323603587241,1.323339264636519" toLonLat="103.72791586436306,1.3350572814429655" /><trip id="bg114" type="car" depart="405" fromLonLat="103.75004516372503,1.3366091751935616" toLonLat="103.74310000607156,1.3202361009830983" /><trip id="bg115" type="bus" depart="408" fromLonLat="103.74238253032298,1.3217617302224527" toLonLat="103.7504050499546,1.323297684410166" /><trip id="delivery1631" type="delivery" depart="408" from="642161236" to="74860023#1" /><trip id="bg116" type="bus" depart="409" fromLonLat="103.73965052331802,1.322250578763936" toLonLat="103.74445153554828,1.333636260996662" /><trip id="delivery1581" type="delivery" depart="412" from="479774985#0" to="823170687" /><trip id="bg117" type="bus" depart="414" fromLonLat="103.7475842608688,1.3314292370045866" toLonLat="103.7325063999639,1.325370350873202" /><trip id="bg118" type="bus" depart="425" fromLonLat="103.73924942784414,1.3320270912498613" toLonLat="103.74668202749012,1.333086468812951" /><trip id="bg119" type="car" depart="425" fromLonLat="103.73937702190037,1.3219515901117131" toLonLat="103.73575685123379,1.3183258381491958" /><trip id="bg120" type="truck" depart="430" fromLonLat="103.73540456057715,1.3194014762812578" toLonLat="103.73839106981254,1.3256760225760813" /><trip id="bg121" type="car" depart="430" fromLonLat="103.74225868510135,1.320699865946402" toLonLat="103.75193069969778,1.3261315657481467" /><trip id="bg122" type="car" depart="441" fromLonLat="103.74174603381957,1.3318027009781697" toLonLat="103.748864451537,1.319268488321902" /><trip id="bg123" type="motorcycle" depart="441" fromLonLat="103.74795270105427,1.326664832403088" toLonLat="103.72952349943833,1.3240614442387362" /><trip id="bg124" type="car" depart="445" fromLonLat="103.74767017439737,1.3346349517289267" toLonLat="103.7492041774196,1.329269100611339" /><trip id="bg125" type="truck" depart="450" fromLonLat="103.72765691649798,1.3207136417441419" toLonLat="103.74635240402002,1.3293112424918754" /><trip id="bg126" type="car" depart="450" fromLonLat="103.73884025865408,1.335366045509956" toLonLat="103.7399047074052,1.3326570554947939" /><trip id="bg127" type="bus" depart="451" fromLonLat="103.74758940089377,1.3353063274287698" toLonLat="103.74631875017107,1.3365025213944266" /><trip id="bg128" type="motorcycle" depart="456" fromLonLat="103.74806630209982,1.3296892980015345" toLonLat="103.74977621268302,1.3340586814576008" /><trip id="bg129" type="car" depart="461" fromLonLat="103.74270407505877,1.331922768910959" toLonLat="103.74313491797594,1.332086525057613" /><trip id="bg130" type="car" depart="461" fromLonLat="103.74570570988843,1.3194621711016699" toLonLat="103.7277447638421,1.3318859173375392" /><trip id="bg131" type="car" depart="466" fromLonLat="103.74632813081783,1.3282583819718414" toLonLat="103.73531132704946,1.315559001206195" /><trip id="bg132" type="car" depart="468" fromLonLat="103.74339488674153,1.3317805731078591" toLonLat="103.73950681560906,1.3194102648747692" /><trip id="bg133" type="car" depart="469" fromLonLat="103.7480155187243,1.320216527037401" toLonLat="103.73112505300725,1.3134232288627845" /><trip id="bg134" type="bus" depart="472" fromLonLat="103.72961512229122,1.3223809251333185" toLonLat="103.75008547151762,1.3215043312073176" /><trip id="bg135" type="bus" depart="475" fromLonLat="103.73736603598259,1.3362431968868231" toLonLat="103.73967128461419,1.3265167842753214" /><trip id="bg136" type="car" depart="479" fromLonLat="103.7419132007258,1.335854345604671" toLonLat="103.7344505271423,1.3186562189297704" /><trip id="bg137" type="bus" depart="484" fromLonLat="103.72962306340192,1.322670189248813" toLonLat="103.74827009595656,1.3179255336468039" /><trip id="bg138" type="truck" depart="485" fromLonLat="103.74730811506318,1.319398854010383" toLonLat="103.74594243761165,1.3215907808889757" /><trip id="bg139" type="car" depart="485" fromLonLat="103.74527607589694,1.3210114663668888" toLonLat="103.73837017221828,1.3206127684106246" /><trip id="bg140" type="car" depart="491" fromLonLat="103.742262127152,1.3202885882144009" toLonLat="103.74059314974949,1.3338164447025223" /><trip id="bg141" type="bus" depart="494" fromLonLat="103.73089943395495,1.3357726671826358" toLonLat="103.74342453594195,1.320929209458751" /><trip id="bg142" type="car" depart="495" fromLonLat="103.74869458182431,1.3277271043072651" toLonLat="103.75122176343325,1.3146919527084426" /><trip id="bg143" type="car" depart="496" fromLonLat="103.73704495726199,1.3312566732914939" toLonLat="103.74766429288417,1.3254449548796488" /><trip id="delivery712" type="delivery" depart="500" from="676705523" to="673207938#1" /><trip id="bg144" type="car" depart="501" fromLonLat="103.74210605319867,1.330914388502402" toLonLat="103.74547862517082,1.3328164894514147" /><trip id="bg145" type="truck" depart="508" fromLonLat="103.72729117057133,1.3333309853778794" toLonLat="103.73307949710056,1.3156074284989658" /><trip id="bg146" type="bus" depart="509" fromLonLat="103.74923170996414,1.325807284640722" toLonLat="103.72794803266204,1.3322667279287406" /><trip id="bg147" type="car" depart="510" fromLonLat="103.74551389812105,1.325249932905773" toLonLat="103.74540077444519,1.3365860784467092" /><trip id="bg148" type="car" depart="511" fromLonLat="103.74316190590383,1.3211706697770433" toLonLat="103.74335750295629,1.328757056210003" /><trip id="bg149" type="bus" depart="519" fromLonLat="103.74785609271517,1.318593756573917" toLonLat="103.74827009595656,1.3179255336468039" /><trip id="bg150" type="car" depart="525" fromLonLat="103.73569840532672,1.3176745646393238" toLonLat="103.73294008874171,1.333693729669576" /><trip id="bg151" type="motorcycle" depart="527" fromLonLat="103.74547012493049,1.3343398580735615" toLonLat="103.73514651361712,1.3348540851787358" /><trip id="bg152" type="car" depart="527" fromLonLat="103.75165336681674,1.3116933553345307" toLonLat="103.74540077444519,1.3365860784467092" /><trip id="bg153" type="bus" depart="528" fromLonLat="103.7380582031994,1.335558572639488" toLonLat="103.73820821222517,1.3206436197700542" /><trip id="bg154" type="car" depart="531" fromLonLat="103.74776868751528,1.3247970176047494" toLonLat="103.74343583704096,1.3360916584796292" /><trip id="bg155" type="bus" depart="532" fromLonLat="103.75010892265053,1.33706137237567" toLonLat="103.73015799913718,1.321186084774397" /><trip id="bg156" type="car" depart="538" fromLonLat="103.73839106981254,1.3256760225760813" toLonLat="103.7326172844173,1.3350843275332214" /><trip id="bg157" type="car" depart="543" fromLonLat="103.74682709759368,1.331624495035386" toLonLat="103.73616905178321,1.3352045673343789" /><trip id="bg158" type="truck" depart="546" fromLonLat="103.7415891009362,1.332019702026055" toLonLat="103.74431450417086,1.3330641798073368" /><trip id="bg159" type="car" depart="558" fromLonLat="103.73866608256284,1.3364396946047103" toLonLat="103.73150750985918,1.3348604296212472" /><trip id="bg160" type="truck" depart="561" fromLonLat="103.74521916863897,1.33583506231559" toLonLat="103.74977826107794,1.336585430751487" /><trip id="bg161" type="car" depart="563" fromLonLat="103.73769766762621,1.335691439082299" toLonLat="103.74565133725613,1.3362220521763137" /><trip id="bg162" type="car" depart="564" fromLonLat="103.72946740534205,1.3240924397529557" toLonLat="103.74830632863846,1.3187946046542058" /><trip id="bg163" type="bus" depart="569" fromLonLat="103.74304088763222,1.3349728507171745" toLonLat="103.72678897083408,1.3333501708211775" /><trip id="bg164" type="car" depart="570" fromLonLat="103.74030661592009,1.3351094701289168" toLonLat="103.72704148940878,1.323898256968389" /><trip id="delivery1349" type="delivery" depart="577" from="630398746#1" to="-639992049" /><trip id="delivery41" type="delivery" depart="580" from="-646231945" to="-542142409" /><trip id="bg165" type="bus" depart="582" fromLonLat="103.74559186054641,1.3338831438104168" toLonLat="103.73969759341823,1.3308175447104764" /><trip id="bg166" type="bus" depart="583" fromLonLat="103.74593680669629,1.322782739463118" toLonLat="103.742262127152,1.3202885882144009" /><trip id="bg167" type="car" depart="587" fromLonLat="103.7380582031994,1.335558572639488" toLonLat="103.73480709794171,1.3135441404575925" /><trip id="bg168" type="car" depart="589" fromLonLat="103.73092201780078,1.3134661794675686" toLonLat="103.72722430447394,1.320327196430763" /><trip id="bg169" type="car" depart="590" fromLonLat="103.73897847968368,1.335187296025184" toLonLat="103.74747048738061,1.3258946686167912" /><trip id="bg170" type="car" depart="595" fromLonLat="103.7460040999171,1.3260387333315655" toLonLat="103.72701883789817,1.3209087757830795" /><trip id="bg171" type="car" depart="606" fromLonLat="103.74731748856345,1.3361251304254418" toLonLat="103.73729729868532,1.3351612823057841" /><trip id="bg172" type="car" depart="618" fromLonLat="103.73713166371996,1.3307615916939022" toLonLat="103.73713858402323,1.3339372234877185" /><trip id="bg173" type="bus" depart="622" fromLonLat="103.74860438526252,1.3265891854170506" toLonLat="103.74658292570852,1.3212570711655152" /><trip id="bg174" type="car" depart="623" fromLonLat="103.74752495956933,1.3192405843340962" toLonLat="103.74673770037408,1.3361960176608059" /><trip id="delivery95" type="delivery" depart="624" from="231909881#1" to="655137625#1" /><trip id="bg175" type="motorcycle" depart="626" fromLonLat="103.72973448274438,1.3346683870247487" toLonLat="103.75011871233926,1.3208070612365794" /><trip id="bg176" type="bus" depart="628" fromLonLat="103.73557608296814,1.3173390212430351" toLonLat="103.74884646911863,1.319825023996711" /><trip id="delivery1239" type="delivery" depart="631" from="-189554576#1" to="1040562604#0" /><trip id="bg177" type="car" depart="638" fromLonLat="103.74555735422558,1.320858837816875" toLonLat="103.73454791075558,1.3174784227963374" /><trip id="bg178" type="truck" depart="643" fromLonLat="103.7491790604583,1.31210104073167" toLonLat="103.7503649617266,1.3150251046199917" /><trip id="bg179" type="car" depart="645" fromLonLat="103.73806317080941,1.3224089602001385" toLonLat="103.74438679360105,1.3285547922606706" /><trip id="bg180" type="car" depart="648" fromLonLat="103.74817238739996,1.3199444396561812" toLonLat="103.73488755132544,1.3215188382700702" /><trip id="bg181" type="car" depart="650" fromLonLat="103.74756302879578,1.3330757945081393" toLonLat="103.74871720666732,1.3297359410283747" /><trip id="bg182" type="motorcycle" depart="650" fromLonLat="103.73713166371996,1.3307615916939022" toLonLat="103.72357015668307,1.3204875783460204" /><trip id="bg183" type="car" depart="652" fromLonLat="103.72757931158236,1.3201012537775159" toLonLat="103.75155649957266,1.3142051326765034" /><trip id="bg184" type="car" depart="655" fromLonLat="103.73429621949755,1.3218592619346248" toLonLat="103.75002097692061,1.3237753422910672" /><trip id="bg185" type="car" depart="658" fromLonLat="103.74538455201193,1.3356136332191697" toLonLat="103.73979671914942,1.33682433211248" /><trip id="bg186" type="motorcycle" depart="675" fromLonLat="103.74733107362978,1.3243360380530431" toLonLat="103.73804801337,1.322348621904255" /><trip id="delivery475" type="delivery" depart="676" from="907620161" to="631939244" /><trip id="delivery512" type="delivery" depart="677" from="-465265507#0" to="482071862" /><trip id="bg187" type="car" depart="679" fromLonLat="103.74541606584057,1.332658349319622" toLonLat="103.75061476635864,1.3179787278382156" /><trip id="bg188" type="car" depart="680" fromLonLat="103.73774925982516,1.3335628925828071" toLonLat="103.7433721202772,1.3371501709343059" /><trip id="bg189" type="car" depart="680" fromLonLat="103.74476193700555,1.328857451631575" toLonLat="103.75087659713898,1.3290325186652543" /><trip id="bg190" type="car" depart="681" fromLonLat="103.730983178806,1.313722818349678" toLonLat="103.73864939521081,1.3342686003006459" /><trip id="bg191" type="car" depart="682" fromLonLat="103.74555212700515,1.320888322137614" toLonLat="103.74545699622674,1.3211647820357242" /><trip id="bg192" type="car" depart="689" fromLonLat="103.73500043165848,1.3365211021452523" toLonLat="103.74998496961558,1.314531231540436" /><trip id="bg193" type="car" depart="707" fromLonLat="103.72841558799426,1.3221310260965893" toLonLat="103.73259077203133,1.3142177701086424" /><trip id="bg194" type="bus" depart="714" fromLonLat="103.74128197809293,1.3368666157131497" toLonLat="103.74791135753686,1.3202211776953385" /><trip id="bg195" type="car" depart="715" fromLonLat="103.74874777250976,1.3364799794636846" toLonLat="103.73286749667058,1.3136461743819317" /><trip id="bg196" type="ca