<?xml version="1.0" encoding="UTF-8"?>

<!-- generated on 2025-06-28 18:55:03 by Eclipse SUMO duarouter Version 1.23.1
<duarouterConfiguration xmlns:xsi="http://www.w3.org/2001/XMLSchema-instance" xsi:noNamespaceSchemaLocation="http://sumo.dlr.de/xsd/duarouterConfiguration.xsd">

    <input>
        <net-file value="data/raw/sumo/changi.net.xml"/>
        <route-files value="data/raw/sumo/changi_full.weather_adjusted.trips.xml"/>
    </input>

    <output>
        <output-file value="data/raw/sumo/changi_full.rou.xml"/>
    </output>

    <report>
        <ignore-errors value="true"/>
    </report>

</duarouterConfiguration>
-->

<routes xmlns:xsi="http://www.w3.org/2001/XMLSchema-instance" xsi:noNamespaceSchemaLocation="http://sumo.dlr.de/xsd/routes_file.xsd">
    <vType id="car" length="5.00" maxSpeed="25.00" color="white" accel="2.6" decel="4.5" sigma="0.5"/>
    <vehicle id="bg0" type="car" depart="1.00">
        <route edges="638919641"/>
    </vehicle>
    <vehicle id="bg1" type="car" depart="3.00">
        <route edges="469618813#1 469589971#0 469589971#1 539002952 633800622#0 633800622#1 539002958#0 539002958#1 633801031 633801029 634142051 634269602#0 634269602#1 223863492 634269599#0 634269599#1 634207068 649224931 469714503 469790797#0 469790797#1 74663246#0 74663246#1 539004581 469790798#0 469790798#1 634147491 793698253 469790799 469692822 583990920 793695859 34403298 744637265 744637264 744637263 34403373#0 34403373#1 738399220 174402286 631916003 631916002 74662603 933827235 933827236 933827237 933828118 631927568 712397874 649632352 632123666 632123665 37585130 37585131 74662604 633576832 34403109 34760645 638069333 717446236 226216286 717446235 166741187 649636777 649636776 22617511 37584994#0 37584994#1 37584993 655660141#0 655660141#1"/>
    </vehicle>
    <vType id="bus" length="12.00" maxSpeed="18.00" color="red" accel="2.6" decel="4.5" sigma="0.5"/>
    <vehicle id="bg3" type="bus" depart="8.00">
        <route edges="635695668#1"/>
    </vehicle>
    <vehicle id="bg5" type="car" depart="13.00">
        <route edges="643363484#1 -643363484#1 -643363484#0 -634224134 -634224135 -635294983 -160670632 -634821727 -634821728 -634149592#1 -634149592#0 534928459#0 534928459#1 528516914 634715373#0 634715373#1 512991765 537636445#0 537636445#1 512991764#0 512991764#1 1241679338 1241679337#0 1241679337#1 512991766 518683058 518683060#0 518683060#1 465028963 518683063#0 518683063#1"/>
    </vehicle>
    <vType id="motorcycle" length="2.00" maxSpeed="28.00" color="blue" accel="2.6" decel="4.5" sigma="0.5"/>
    <vehicle id="bg6" type="motorcycle" depart="24.00">
        <route edges="471356406#1 512991772 471357858 727473278 85001247 583992235#0 583992235#1 471509725 166987973 633587306 634146389#0 634146389#1 325024318#0 325024318#1 631934277 727473277 471356706 727468394 85001249 471357859 173767964 631930875#0 631930875#1 631919766 634784575#0 634784575#1 634200332 649556671 634200334 631919765 633809076 633809075 634175397 649439759 634175394 634175395 174717951 631913909 631913908 639634403 471353380 635298657 471353381 174717953 23064956 22981700 633808401 635296702 539002929 633808404 633805410 632154842#0 632154842#1 471308505 655630669#0 655630669#1 655630668 539002934#0 539002934#1 22617051 634192174 634152492 471272313#0 471272313#1 718263209 74574408#0 74574408#1 632265380 632265379 632265381#0 632265381#1 713263961 713263960 22617159 634163068 471272307#0 471272307#1 512991767#0 512991767#1 646242849 173713415#0 173713415#1 816364542#0 816364542#1 816364542#2 537636430 537636429 635753012 655678272 635746760 645298277 173713439 539002949 537636434 639896463 537636439 639896314 655686263 537636442#0 537636442#1 261847817#0 261847817#1 261847817#2 534928454 74480541#0 74480541#1 639963393 469594851#0 469594851#1 -539002952 -633205390#1 -633205390#0 -633205387 -633207947 -42063693 -639036242 -639718929 -469594852 -641061662 -676847850 -633213343 -633213344#1 -633213344#0 -633213345 -633197832 633197833#0 633197833#1 633197831 741902911 633202073 633202072"/>
    </vehicle>
    <vehicle id="bg7" type="bus" depart="29.00">
        <route edges="539002979"/>
    </vehicle>
    <vehicle id="bg8" type="motorcycle" depart="30.00">
        <route edges="-37584995 -645218777#1 -645218777#0 -655620915 -639567688#1 -639567688#0 639567689 489492101 590331575 590331580 471527922 471527923 744271836 471535025 166747437 166747444 166747446 166747447 727510836 200159286#0 200159286#1 166741191 590331533 649600155 15775499 631931875 37585128 37585129 649663177 22975127#0 22975127#1 223860412 656722853 655628315#0 655628315#1 539002993 539002992#0 539002992#1"/>
    </vehicle>
    <vehicle id="bg9" type="car" depart="35.00">
        <route edges="-633197832 633197832 633213345 633213344#0 633213344#1 633213343 676847850 641061662 469594852 639718929 639036242 42063693 633207947 633205387 633205390#0 633205390#1 634779543#0 634779543#1 469589972 635253895 634757527 634775635 634715374 445283010#0 445283010#1 528516915 261847819#0 261847819#1 261847819#2 537636443#0 537636443#1 639896315 537636441#0 537636441#1 639896464 537636437 537636436 645298276 512991768 655682819#0 655682819#1 655682819#2 655682819#3 655682819#4 655680266#0 655680266#1 537636432 537636431 512991771#0 512991771#1 512991771#2 655681100 646242846 635295556 512991769#0 512991769#1 512991770 537636426 22617158 586836325 586836332 713263959 713263958#0 713263958#1 713263957#0 713263957#1 713263956 471272308#0 471272308#1 471272312 466523814#0 466523814#1 634805350 471272310#0 471272310#1 471272310#2 718263870 634798541 635249571#0 635249571#1 651916811 539002910 718267460#0 718267460#1 745373492 632155268 632155271 718268916 22617155 646485514 646483941 646483942 -466523810#1 -466523810#0 -293480786#1"/>
    </vehicle>
    <vehicle id="bg10" type="car" depart="41.00">
        <route edges="793692536 173767986#0 173767986#1 465685703 583990920 793695859 34403298 744637265 744637264 744637263 34403373#0 34403373#1 738399220 174402286 631916003 631916002 74662603 933827235 933827236 933827237 933828118 631927568 712397873#0 712397873#1"/>
    </vehicle>
    <vehicle id="bg11" type="motorcycle" depart="47.00">
        <route edges="530362932 1114875082 1114875081 481780600 481780604 481780605 74737400 632763727 632763728 632763729 481949084 696949689 696949688 469333091 696949600 1114875080 506882381 635529260 655605989 160627227 23149902"/>
    </vehicle>
    <vehicle id="bg12" type="car" depart="48.00">
        <route edges="781673024 781673026 748612715 634958977 781694985 781694984 688067545 1133344796 634170494 469553175 469553176 469553177 226219702 747282706 747282705 590380563 590380564 747282704 469553178 747282703 174402283 226219701 746657953 746657952 204192290 632152150 23149902 204335715 74535470 779838553 638069333 717446236 226216286 717446235 166741187 649636777 649636776 22617511 37584994#0 37584994#1 37584993 655660141#0 655660141#1 635338472#0 635338472#1 23064955 590331569 590331585 635288849 639567690#0 639567690#1 717446234 717446233 635288850 635288851 489492099 489492100 635275299#0 635275299#1 635275296 489492094#0 489492094#1 635275307 635275304 673295198 635275312#0 635275312#1 635275310#0 635275310#1 633812454#0 633812454#1 489492091 489492092#0 489492092#1 489492092#2 734702307 655137862#0 655137862#1 655137861#0 655137861#1 655137861#2 1320178843#0 1320178843#1 1320178843#2 1050919324 1051066773 1050919325 468685546#0 468685546#1 655137859 1324962894 655137860 646392137#0 646392137#1 641306813 630452413 641306811 641306809 641306807 630158115 468685548 656546062 666922412 657549046 630158413 641312725 630452166 641312723 641312726#0 641312726#1 641306558 641306559 468685547#0 468685547#1 709621846 639346969 1320177599 639346968 467899818#0 467899818#1 467899818#2 630156586 166975172 539755571#0 539755571#1 539755570 727462451 166975175 727462450 727462449 727468400 727468399 166975170 652384659 534921249 534921246 166987975 166987974 634216307 727468396 727468395 471547482#0 471547482#1 633814778#0 633814778#1 471547479 633814777 633587306 634146389#0 634146389#1 325024318#0 325024318#1 631934277 727473277 471356706 727468394 85001249 471357859 173767964 631930875#0 631930875#1 631919766 634784575#0 634784575#1 634200332 649556671 634200334 631919765 633809076 633809075 634175397 649439759 634175394 634175395 174717951 631913909 631913908 639634403 471353380 635298657 471353381 174717953 23064956 22981700 633808401 635296702 539002929 633808404 633805410 632154842#0 632154842#1 471308505 478889311 395361387#0 395361387#1 512991743 74476532 471281445 713575581 713575580#0 713575580#1 512991745 539002917 632150027#0"/>
    </vehicle>
    <vehicle id="bg13" type="car" depart="50.00">
        <route edges="639891589 639891588 665744209 639770825 639770824#0 639770824#1 639770823 639770822#0 639770822#1 665738064 639770821 665738063 639770820#0 639770820#1 639770820#2 28229309#0 28229309#1 465028952 470919053#0 470919053#1 470919053#2 639770819 634072651 643814215#0 643814215#1 643814214 470919058 665736519 665736518 665736517 645305106 645305107 639587707 639587710 639587705 665735945 471190114 635667233#0 635667233#1 539002905 539002903 470917020#0 470917020#1 470917020#2 471161675#0 471161675#1 649547110 471161674#0 471161674#1 175015667#0 175015667#1 175015667#2 798283312#0 798283312#1 798283311 655602429 469517178#0 469517178#1 173954648 173182605#0 173182605#1 173182605#2 635630082 -639957243 -655604571 -655604572 -469579670 655600977#0 655600977#1 655600977#2 445282953 1241679353#0 1241679353#1 469594850#0 469594850#1 537636446#0 537636446#1 42063692#0 42063692#1 42063692#2 445282950 534928454 74480541#0 74480541#1 639963393 469594851#0 469594851#1 633800622#0 633800622#1 539002958#0 539002958#1 633801031 633801029 634142051 634269602#0 634269602#1 223863492 634269599#0 634269599#1 634207068 649224931 469714503 469790797#0 469790797#1 74663246#0 74663246#1 539004581 469790798#0 469790798#1 634147491 793698253 469790799 469692822 583990920 793695859 34403298 744637265 744637264 744637263 34403373#0 34403373#1 738399220 174402286 631916003 631916002 74662603 933827235 933827236 933827237 933828118 631927568 712397873#0 712397873#1 882971571 882971570 696946492 15775495 74535469 782980900 634822132 634822129 204192293 746659030 746659028 173010430 590374273 746659027#0 746659027#1 746659026#0 746659026#1 652040615 590374272#0 590374272#1 590374272#2 173010429#0 173010429#1 904633235 590331536 204192290 632152150 23149902 204335715 700998527 934406421 62272692 34760649 34403107 631931875 37585128 37585129 649663177 22975127#0 22975127#1 223860412 656722853 655628315#0 655628315#1 539002993 463966350 635646390#0 635646390#1 223860398 639070675 473839757 652159791 727549203 473839759 727549204 635649510#0 635649510#1 539002986 463969355 635630914#0 635630914#1 463969353#0 463969353#1 463969353#2 463969353#3 463969353#4 463969353#5 391007705#0 391007705#1 672203486#0 672203486#1 111818188#0 111818188#1 111818188#2 111818188#3"/>
    </vehicle>
    <vehicle id="bg14" type="bus" depart="53.00">
        <route edges="-646450914#1 -646450914#0 -745373486 -174717952 174717952 745373486 646450914#0 646450914#1 644821192 745373485 546430027 635299276 640194013 471353381 174717953 23064956 22981700"/>
    </vehicle>
    <vType id="truck" length="8.00" maxSpeed="20.00" color="yellow" accel="2.6" decel="4.5" sigma="0.5"/>
    <vehicle id="bg15" type="truck" depart="55.00">
        <route edges="655682819#1 655682819#2 655682819#3 655682819#4 655680266#0 655680266#1 537636432 537636431 512991771#0 512991771#1 512991771#2 655681100 646242846 635295556 512991769#0 512991769#1 512991770 471257144#0 471257144#1 635691604#0 635691604#1 1346331386#0 1346331386#1 1346331386#2 1346331386#3 1149726132#0 1149726132#1 1149726132#2 1149726132#3 1149726132#4"/>
    </vehicle>
    <vehicle id="bg16" type="car" depart="64.00">
        <route edges="-633811840"/>
    </vehicle>
    <vehicle id="bg17" type="truck" depart="64.00">
        <route edges="670622348"/>
    </vehicle>
    <vehicle id="bg19" type="car" depart="69.00">
        <route edges="223860416#2"/>
    </vehicle>
    <vehicle id="bg20" type="motorcycle" depart="71.00">
        <route edges="74737429#0 74737429#1 481780597 449239367 204192293 746659030 746659028 173010430 590374273 746659027#0 746659027#1 746659026#0 746659026#1 652040615 590374272#0 590374272#1 590374272#2 173010429#0 173010429#1 904633235 590331536 204192290 632152150 23149902 204335715 74535470 779838553 638069333 717446236 226216286 717446235 166741187 649636777 649636776 22617511 37584994#0 37584994#1 37584993 655660141#0 655660141#1 635338472#0 635338472#1 23064955 590331569 590331585 635288849 639567690#0 639567690#1 717446234 717446233 635288850 635288851 489492099 489492100 635275299#0 635275299#1 635275296 489492094#0 489492094#1 635275307 635275304 673295198 635275312#0 635275312#1 635275310#0 635275310#1 633812454#0 633812454#1 489492091 489492092#0 489492092#1 489492092#2 734702307 655137862#0 655137862#1 655137861#0 655137861#1 655137861#2 1320178843#0 1320178843#1 1320178843#2 1050919324 1051066773 1050919325 468685546#0 468685546#1 655137859 1324962894 655137860 646392137#0 646392137#1 641306813 630452413 641306811 641306809 641306807 630158115 468685548 656546062 666922412 657549046 630158413 641312725 630452166 641312723 641312726#0 641312726#1 641306558 641306559 468685547#0 468685547#1 709621846 639346969 1320177599 639346968 467899818#0 467899818#1 467899818#2 630156586 166975172 539755571#0 539755571#1 539755570 727462451 166975175 727462450 727462449 727468400 727468399 166975170 652384659 534921249 534921246 166987975 166987974 634216307 727468396 727468395 471547482#0 471547482#1 633814778#0 633814778#1 471547479 633814777 633587306 634146389#0 634146389#1 325024318#0 325024318#1 631934277 727473277 471356706 727468394 85001249 471357859 173767964 631930875#0 631930875#1 631919766 634784575#0 634784575#1 634200332 649556671 634200334 631919765 633809076 633809075 634175397 649439759 634175394 634175395 174717951 631913909 631913908 639634403 471353380 635298657 471353381 174717953 23064956 22981700 633808401 635296702 539002929 633808404 633805410 632154842#0 632154842#1 471308505 655630669#0 655630669#1 655630668 539002934#0 539002934#1 22617051 634192174 634152492 471272313#0 471272313#1 718263209 74574408#0 74574408#1 632265380 632265379 632265381#0 632265381#1 713263961 713263960 22617159 634163068 471272307#0 471272307#1 537636427 512991770 471257144#0 471257144#1 635691604#0 635691604#1 1346331386#0 1346331386#1 1346331386#2 1346331386#3 -1149726127 -665767110#1 -665767110#0 -643796644 -644488839 -644488840 644488841 665767342 665767656 665767658 665767657 -28229312 -665754665#1 -665754665#0 -646926004 -665757470 -646926003#1 -646926003#0 -665758006#3 -665758006#2 -665758006#1 -665758006#0 -28229313 -665759304 -665759765#1 -665759765#0 -646265376 -646262246 -640057136#1 -640057136#0 640057138#0 640057138#1 665746211 665746212#0 665746212#1 639774535#0"/>
    </vehicle>
    <vehicle id="bg21" type="motorcycle" depart="76.00">
        <route edges="173010429#0"/>
    </vehicle>
    <vehicle id="bg22" type="bus" depart="77.00">
        <route edges="1290811496#0 1290811496#1 1290811496#2 1290811496#3 468685546#1 655137859 1324962894 655137860 646392137#0 646392137#1 641306813 630452413 641306811 641306809 641306807 630158115 468685548 656546062 666922412 657549046 630158413 641312725 630452166 641312723 641312726#0 641312726#1 641306558 641306559 468685547#0 468685547#1 709621846 639346969 1320177599 639346968 467899818#0 467899818#1 467899818#2 630156586 166975172 539755571#0 539755571#1 539755570 727462451 166975175 727462450 727462449 727468400 727468399 166975170 652384659 534921249 534921246 166987975 166987974 634216307 727468396 727468395 471547482#0 471547482#1 633814778#0 633814778#1 471547479 633814777 633587306 634146389#0 634146389#1 325024318#0 325024318#1 631934277 727473277 471356706 727468394 85001249 471357859 173767964 631930875#0 631930875#1 631919766 634784575#0 634784575#1 634200332 649556671 634200334 631919765 633809076 633809075 634175397 649439759 634175394 634175395 174717951 631913909 631913908 639634403 471353380 635298657 471353381 174717953 23064956 22981700 633808401 635296702 539002929 633808404 633805410 632154842#0 632154842#1 471308505 655630669#0 655630669#1 655630668 539002934#0 539002934#1 22617051 634192174 634152492 471272313#0 471272313#1 718263209 74574408#0 74574408#1 632265380 632265379 632265381#0 632265381#1 713263961 713263960 22617159 634163068 471272307#0 471272307#1 512991767#0 512991767#1 646242849 173713415#0 173713415#1 816364542#0 816364542#1 816364542#2 537636430 537636429 635753012 655678272 635746760 645298277 173713439 539002949 537636434 639896463 537636439 639896314 655686263 537636442#0 537636442#1 261847817#0 261847817#1 261847817#2 534928454 74480541#0 74480541#1 639963393 469594851#0 469594851#1 633800622#0 633800622#1 539002958#0 539002958#1 633801031 633801029 634142051 634269602#0 634269602#1 223863492 634269599#0 634269599#1 634207068 649224931 469714503 469790797#0 469790797#1 -631940775#2 -631940775#1 -631940775#0 -634834196 -649369900 -639950664 -635266882 -635272935 -74663247 -634836431#1 -634836431#0 -634836432 -634836433#1 -634836433#0 632153157#0 632153157#1 632153157#2 665514392 645246255 645246253 645246254#0 645246254#1 665514393 791646677 791646678#0 791646678#1 645274827"/>
    </vehicle>
    <vehicle id="bg23" type="bus" depart="77.00">
        <route edges="-639896377 -639896376#1 -639896376#0 -665729170 -640080159 -639896378 -639902675#1 -639902675#0 -639902676 -681161287#2 -681161287#1 -681161287#0 -639755631 -639755632#3 -639755632#2 -639755632#1 -639755632#0 -28229310 -1242221682#1 -1242221682#0 -639752853 1242221675 1242221673#0 1242221673#1 1149726130 1346331386#0 1346331386#1 1346331386#2 1346331386#3 1149726132#0 1149726132#1 1149726132#2 1149726132#3 1149726132#4 535048099#0 535048099#1 535048099#2 539002903 470917020#0 470917020#1 470917020#2 471161675#0 471161675#1 649547110 471161674#0 471161674#1 175015667#0 175015667#1 175015667#2 798283312#0 798283312#1 798283311 655602429 469517178#0 469517178#1 173954648 173182605#0 173182605#1 173182605#2 635630082 -639957243 -655604571 -655604572 -469579670 655600977#0 655600977#1 655600977#2 445282953 1241679353#0 1241679353#1 469594850#0 469594850#1 537636446#0 537636446#1 42063692#0 42063692#1 42063692#2 445282950 534928454 74480541#0 74480541#1 639963393 469594851#0 469594851#1 633800622#0 633800622#1 539002958#0 539002958#1 633801031 633801029 634142051 634269602#0 634269602#1 223863492 634269599#0 634269599#1 634207068 649224931 469714503 469790797#0 469790797#1 74663246#0 74663246#1 539004581 469790798#0 469790798#1 634147491 793698253 469790799 469692822 583990920 793695859 34403298 744637265 744637264 744637263 34403373#0 34403373#1 738399220 174402286 631916003 631916002 74662603 933827235 933827236 933827237 933828118 631927568 712397873#0 712397873#1 882971571 882971570 651135161 696946494 696946493 530362932 1114875082 1114875081 481780600 481780604 481780605 74737400 632763727 632763728 632763729 481949084 655688364 655688725 655688603 655688982#0 655688982#1 655689130"/>
    </vehicle>
    <vehicle id="bg24" type="motorcycle" depart="83.00">
        <route edges="22617443 727866730 654369377 467351555 74663070 37585056 655598648 37584994#0 37584994#1 37584993 655660141#0 655660141#1 635338472#0 635338472#1 23064955 590331569 590331585 635288849 639567690#0 639567690#1 717446234 717446233 635288850 635288851 489492099 489492100 635275299#0 635275299#1 635275296 489492094#0 489492094#1 635275307 635275304 673295198 635275312#0 635275312#1 635275310#0 635275310#1 633812454#0 633812454#1 489492091 489492092#0 489492092#1 489492092#2 734702307 655137862#0 655137862#1 655137861#0 655137861#1 655137861#2 1320178843#0 1320178843#1 1320178843#2 1050919324 1051066773 1050919325 468685546#0 468685546#1 655137859 1324962894 655137860 646392137#0 646392137#1 641306813 630452413 641306811 641306809 641306807 630158115 468685548 656546062 666922412 657549046 630158413 641312725 630452166 641312723 641312726#0 641312726#1 641306558 641306559 468685547#0 468685547#1 709621846 639346969 1320177599 639346968 467899818#0 467899818#1 467899818#2 630156586 166975172 539755571#0 539755571#1 539755570 727462451 727624615 539755573#1 539755572 634153163 85001257 634309659 634277094 634275476"/>
    </vehicle>
    <vehicle id="bg25" type="truck" depart="93.00">
        <route edges="791987518"/>
    </vehicle>
    <vehicle id="bg26" type="bus" depart="100.00">
        <route edges="537636434 639896463 537636439 639896314 655686263 537636442#0 537636442#1 261847817#0 261847817#1 261847817#2 534928454 74480541#0 74480541#1 639963393 469594851#0 469594851#1 633800622#0 633800622#1 539002958#0 539002958#1 633801031 633801029 634142051 634269602#0 634269602#1 223863492 634269599#0 634269599#1 634207068 649224931 469714503 469790797#0 469790797#1 74663246#0 74663246#1 539004581 469790798#0 469790798#1 634147491 793698253 469790799 469692822 583990920 793695859 34403298 744637265 744637264 744637263 34403373#0 34403373#1 738399220 174402286 631916003 631916002 74662603 933827235 933827236 933827237 933828118 631927568 712397873#0 712397873#1 882971571 882971570 651135161 696946494 696946493 530362932 1114875082 1114875081 481780600 481780604 481780605 74737400 632763727 632763728 632763729 481949084 655688364 655688725 655688603 655688982#0 655688982#1 655689130 655689131 522398498 652289910"/>
    </vehicle>
    <vehicle id="bg27" type="truck" depart="100.00">
        <route edges="634275476"/>
    </vehicle>
    <vehicle id="bg28" type="car" depart="103.00">
        <route edges="-633197832"/>
    </vehicle>
    <vehicle id="bg29" type="car" depart="120.00">
        <route edges="745373495"/>
    </vehicle>
    <vehicle id="bg30" type="truck" depart="121.00">
        <route edges="701879015#1 677693086 643801792 465028912 701874955#0 701874955#1 261804635#0 261804635#1 261804635#2 469579670 655604572 655604571 639957243 173182606#0 173182606#1 173180853 633248598#0 633248598#1 74499857#0 74499857#1 74499857#2 471161673 755775502#0 755775502#1 175015665 175015675 1156223912#0 1156223912#1 470917021 470917023#0 470917023#1 470917022#0 470917022#1 635695668#0 635695668#1 539002904 471162361#0 471162361#1 665734722#0 665734722#1 665734630 665733812#0 665733812#1 665733809#0 665733809#1 665733809#2 641143982#0 641143982#1 681141358 74482706 643796647 641148072 641148071 640191987 640191989 640191988 640192936 681372256 640192935 539002906 1149726129 28229316#0 28229316#1 649854222 471272304 471257152#0 471257152#1 586836332 713263959 713263958#0 713263958#1 713263957#0 713263957#1 713263956 471272308#0 471272308#1"/>
    </vehicle>
    <vehicle id="bg31" type="car" depart="125.00">
        <route edges="634715373#1"/>
    </vehicle>
    <vehicle id="bg32" type="car" depart="125.00">
        <route edges="160593304#1 652563338 700315884 681590757#0 681590757#1 325024318#0 325024318#1 631934277 727473277 471356706 727468394 85001249 471357859 173767964 631930875#0 631930875#1 631919766 634784575#0 634784575#1 634200332 649556671 634200334 631919765 633809076 633809075 634175397 649439759 634175394 634175395 174717951 631913909 631913908 639634403 471353380 635298657 471353381 174717953 23064956 22981700 633808401 635296702 539002929 633808404 633805410 632154842#0 632154842#1 471308505 655630669#0 655630669#1 655630668 539002934#0 539002934#1 22617051 634192174 634152492 471272313#0 471272313#1 718263209 74574408#0 74574408#1 632265380 632265379 632265381#0 632265381#1 713263961 713263960 22617159 634163068 471272307#0 471272307#1 512991767#0 512991767#1 646242849 173713415#0 173713415#1 816364542#0 816364542#1 816364542#2 537636430 537636429 635753012 655678272 635746760 645298277 173713439 539002949 537636434 639896463 537636439 639896314 655686263 537636442#0 537636442#1 261847817#0 261847817#1 261847817#2 534928457#0 534928457#1 634149592#0 634149592#1 634821728 634821727 160670632 635294983 634224135 634224134 634224136 680831071#0 680831071#1 671188751 160670631 671188750 674375670 646828326 646828323 671411481 674579361 646359834 646359835 670622348 645281003 645281002 645281001 639674428 634147840 634842452 634842453"/>
    </vehicle>
    <vehicle id="bg33" type="bus" depart="132.00">
        <route edges="665734630 665733812#0 665733812#1 665733809#0 665733809#1 665733809#2 641143987#0 1149726132#2 1149726132#3 1149726132#4 535048099#0 535048099#1 535048099#2 539002903 470917020#0 470917020#1 470917020#2 471161675#0 471161675#1 649547110 471161674#0 471161674#1 175015667#0 175015667#1 175015667#2 798283312#0 798283312#1 798283311 655602429 469517178#0 469517178#1 173954648 173182605#0 173182605#1 173182605#2 635630082 -639957243 -655604571 -655604572 -469579670 655600977#0 655600977#1 655600977#2 445282953 1241679353#0 1241679353#1 469594850#0 469594850#1 537636446#0 537636446#1 42063692#0 42063692#1 42063692#2 445282950 534928454 74480541#0 74480541#1 639963393 469594851#0 469594851#1 633800622#0 633800622#1 539002958#0 539002958#1 633801031 633801029 634142051 634269602#0 634269602#1 223863492 634269599#0 634269599#1 634207068 649224931 469714503 469790797#0 469790797#1 74663246#0 74663246#1 539004581 469790798#0 469790798#1 634147491 793698253 469790799 469692822 583990920 793695859 34403298 744637265 744637264 744637263 34403373#0 34403373#1 738399220 174402286 631916003 631916002 74662603 933827235 933827236 933827237 933828118 631927568 712397874 649632352 632123666 632123665 37585130 37585131 74662604 633576832 34403109 34760645 638069333 717446236 226216286 717446235 166741187 649636777 649636776 22617511 37584994#0 37584994#1 37584993 655660141#0 655660141#1 635338472#0 635338472#1 23064955 590331569 590331585 635288849 639567690#0 639567690#1 717446234 717446233 635288850 635288851 489492099 489492100 635275299#0 635275299#1 635275296 576789875 638919643 635248631#0 635248631#1 638919641 489492096 489492102 703056061#0"/>
    </vehicle>
    <vType id="delivery" length="5.00" maxSpeed="20.00" color="green" accel="2.6" decel="4.5" sigma="0.5"/>
    <vehicle id="delivery195" type="delivery" depart="135.00">
        <route edges="-646483942 -646483941 -646485514 -22617155 -718268916 -632155271 -632155268 -745373492 -718267460#1 -718267460#0 -539002910 -651916811 -635249571#1 -635249571#0 -634798541 -718263870 -471272310#2 -471272310#1 -471272310#0 718263213#0 718263213#1 718263213#2 718263211 718263209 74574408#0 74574408#1 632265380 632265379 632265381#0 632265381#1 713263961 713263960 22617159 634163068 471272307#0 471272307#1 537636427 512991770 471257144#0 471257144#1 635691604#0 635691604#1 1149726128 539002906 639751483#0 639751483#1 639751483#2 1242221672 639751478#0 639751478#1 639751478#2 639972423 28229483 639972421 639972422#0 639972422#1 -639972422#1"/>
    </vehicle>
    <vehicle id="bg34" type="car" depart="136.00">
        <route edges="639774535#1 639774536 665745730#0 665745730#1 639774537 639774538 665745276#0 665745276#1 665745276#2 641143987#0 1149726132#2 1149726132#3 1149726132#4 535048099#0 535048099#1 535048099#2 539002903 470917020#0 470917020#1 470917020#2 471161675#0 471161675#1 649547110 471161674#0 471161674#1 175015667#0 175015667#1 175015667#2 798283312#0 798283312#1 798283311 655602429 469517178#0 469517178#1 173954648 173182605#0 173182605#1 173182605#2 635630082 -639957243 -655604571 -655604572 -469579670 655600977#0 655600977#1 655600977#2 445282953 1241679353#0 1241679353#1 469594850#0 469594850#1 537636446#0 537636446#1 42063692#0 42063692#1 42063692#2 445282950 534928454 74480541#0 74480541#1 639963393 469594851#0 469594851#1 633800622#0 633800622#1 539002958#0 539002958#1 633801031 633801029 634142051 634269602#0 634269602#1 223863492 634269599#0 634269599#1 634207068 649224931 469714503 469790797#0 469790797#1 74663246#0 74663246#1 539004581 469790798#0 469790798#1 634147491 793698253 469790799 469692822 583990920 793695859 34403298 744637265 744637264 744637263 34403373#0 34403373#1 738399220 174402286 631916003 631916002 74662603 933827235 933827236 933827237 933828118 631927568 712397873#0 712397873#1 882971571 882971570 696946492 15775495 74535469 782980900 634822132 634822129 204192293 746659030 746659028 173010430 590374273 746659027#0 746659027#1 746659026#0 746659026#1 652040615 590374272#0 590374272#1 590374272#2 173010429#0 173010429#1 904633235 173488748 655806210 655806211 655699632 655699633 590331537 530374312 539096211 634834584 204335769 142868911 540288289 74737429#0 74737429#1"/>
    </vehicle>
    <vehicle id="bg35" type="car" depart="138.00">
        <route edges="512991768 655682819#0 655682819#1 655682819#2 655682819#3 655682819#4 655680266#0 655680266#1 537636432 537636431 512991771#0 512991771#1 512991771#2 655681100 646242846 635295556 512991769#0 512991769#1 512991770 537636426 22617158 586836325 586836332 713263959 713263958#0 713263958#1 713263957#0 713263957#1 713263956 471272308#0 471272308#1 471272312 471272311#0 471272311#1 718263210 639559481#0 639559481#1 655628168 471300175 539002937 651093335#0 651093335#1 634187305 471281440 471281441#0 471281441#1 478170131 634208212#0 634208212#1 634208212#2 634208209 639383209 649338417 634208210 539002925 655629594 651919655 651919654 471353376 471353377 635299277 634163186 639634401 639634402 635746758 634720022 634720024 634720019 649489199 635735496 471353378 638963993 634772272 634772275 634772277 639668126 639569151#0 639569151#1 471356403 471356406#0 471356406#1 512991772 471357858 727473278 85001247 583992235#0 583992235#1 471509725 166987973 633587306 634146389#0 634146389#1 325024318#0 325024318#1"/>
    </vehicle>
    <vehicle id="bg36" type="bus" depart="139.00">