<?xml version='1.0' encoding='utf-8'?>
<trips><vType id="car" accel="2.6" decel="4.5" sigma="0.5" length="5" maxSpeed="25" color="white" /><vType id="bus" accel="2.6" decel="4.5" sigma="0.5" length="12" maxSpeed="18" color="red" /><vType id="truck" accel="2.6" decel="4.5" sigma="0.5" length="8" maxSpeed="20" color="yellow" /><vType id="motorcycle" accel="2.6" decel="4.5" sigma="0.5" length="2" maxSpeed="28" color="blue" /><vType id="delivery" accel="2.6" decel="4.5" sigma="0.5" length="5" maxSpeed="20" color="green" /><trip id="bg0" type="car" depart="1" fromLonLat="103.96422518013443,1.3559124988087006" toLonLat="103.98835356134333,1.3168392843704788" /><trip id="bg1" type="car" depart="3" fromLonLat="103.9695226238936,1.3581366916692943" toLonLat="103.97609074584882,1.3263381379395127" /><trip id="bg2" type="truck" depart="7" fromLonLat="103.96430595095933,1.3449411822003454" toLonLat="103.96647621254442,1.374747961086433" /><trip id="bg3" type="bus" depart="8" fromLonLat="103.9680111339779,1.3697701904908088" toLonLat="103.9731275746719,1.3176343865378468" /><trip id="bg4" type="motorcycle" depart="8" fromLonLat="103.97020849013822,1.340164893100491" toLonLat="103.9684690303877,1.3628964044128156" /><trip id="bg5" type="car" depart="13" fromLonLat="103.97568834060516,1.3600702476653541" toLonLat="103.96574780596691,1.3622332597694036" /><trip id="bg6" type="motorcycle" depart="24" fromLonLat="104.00005222394589,1.386520087979461" toLonLat="103.96467525099715,1.3589569584896388" /><trip id="bg7" type="bus" depart="29" fromLonLat="103.98967330793283,1.3648618859575565" toLonLat="103.96797539789169,1.3418853606693004" /><trip id="bg8" type="motorcycle" depart="30" fromLonLat="103.97771958806547,1.316883222904122" toLonLat="103.96896518723798,1.3342070800283143" /><trip id="bg9" type="car" depart="35" fromLonLat="103.96549323918767,1.3599893441922104" toLonLat="103.97621069772714,1.3900584131727136" /><trip id="bg10" type="car" depart="41" fromLonLat="103.96430241847078,1.3532939606684145" toLonLat="103.97254110995421,1.3383582565129364" /><trip id="bg11" type="motorcycle" depart="47" fromLonLat="103.97944362425315,1.3400478405592562" toLonLat="103.98191048652397,1.3415898303848925" /><trip id="bg12" type="car" depart="48" fromLonLat="103.98952348392233,1.3611873089205373" toLonLat="103.9865022779063,1.3895859843505298" /><trip id="bg13" type="car" depart="50" fromLonLat="103.96727250187885,1.375454421687498" toLonLat="103.96857315031852,1.3391448305408942" /><trip id="bg14" type="bus" depart="53" fromLonLat="103.99158430020142,1.3909595241655401" toLonLat="103.99063992186215,1.3873864599422274" /><trip id="bg15" type="truck" depart="55" fromLonLat="103.977674296004,1.3683589603108688" toLonLat="103.96929260046424,1.3708658288166544" /><trip id="bg16" type="car" depart="64" fromLonLat="103.97026289485515,1.3520925194661984" toLonLat="103.97149259908542,1.3755983652130588" /><trip id="bg17" type="truck" depart="64" fromLonLat="103.97486631433196,1.3545225555725147" toLonLat="103.97401925301503,1.3363607512554505" /><trip id="bg18" type="car" depart="67" fromLonLat="103.96438323254166,1.3288862255607283" toLonLat="103.98880273983343,1.3592624107623483" /><trip id="bg19" type="car" depart="69" fromLonLat="104.0307094508123,1.3209773820584314" toLonLat="103.97022769749938,1.336133733279191" /><trip id="bg20" type="motorcycle" depart="71" fromLonLat="103.98149217601036,1.34337512038396" toLonLat="103.9684444014794,1.3730027998189638" /><trip id="bg21" type="motorcycle" depart="76" fromLonLat="103.98515875331293,1.3479100671004984" toLonLat="103.99542415880717,1.3843271179265622" /><trip id="bg22" type="bus" depart="77" fromLonLat="104.01025324210485,1.3170525697280102" toLonLat="103.96680543738321,1.3504916560616105" /><trip id="bg23" type="bus" depart="77" fromLonLat="103.9716655862669,1.3825763671366507" toLonLat="103.98294844322517,1.3392927142999718" /><trip id="bg24" type="motorcycle" depart="83" fromLonLat="103.96965767557153,1.3268771131354649" toLonLat="104.01810294917323,1.364718417466522" /><trip id="bg25" type="truck" depart="93" fromLonLat="103.99847510851131,1.3822222666045902" toLonLat="103.96514131891945,1.3531227225830555" /><trip id="bg26" type="bus" depart="100" fromLonLat="103.97553253746837,1.366129063306914" toLonLat="103.9820887017563,1.3381357554987408" /><trip id="bg27" type="truck" depart="100" fromLonLat="104.01810294917323,1.364718417466522" toLonLat="104.027908634045,1.3219825531097076" /><trip id="delivery348" type="delivery" depart="100" from="646830672#0" to="512991772" /><trip id="bg28" type="car" depart="103" fromLonLat="103.96535237921404,1.3600393970455364" toLonLat="104.02789595925485,1.322218647562567" /><trip id="bg29" type="car" depart="120" fromLonLat="103.98784261118713,1.390738369586674" toLonLat="103.98686464805805,1.3489732159614425" /><trip id="bg30" type="truck" depart="121" fromLonLat="103.96737015539522,1.3635895612933557" toLonLat="103.97829808179702,1.3868579189609975" /><trip id="bg31" type="car" depart="125" fromLonLat="103.97275050213152,1.3538724367844688" toLonLat="103.9716886580265,1.3618054195180624" /><trip id="bg32" type="car" depart="125" fromLonLat="104.00298040926319,1.3748994509642305" toLonLat="103.97212805480517,1.3526939559742115" /><trip id="bg33" type="bus" depart="132" fromLonLat="103.96875941946354,1.370497886497966" toLonLat="103.9840851613442,1.3183082092470573" /><trip id="delivery195" type="delivery" depart="135" from="-646483942" to="-639972422#1" /><trip id="bg34" type="car" depart="136" fromLonLat="103.96847731079463,1.3729706111064952" toLonLat="103.98184631615253,1.3444074882636372" /><trip id="bg35" type="car" depart="138" fromLonLat="103.9752503276633,1.3673814246250353" toLonLat="104.00217871613314,1.3769856369818356" /><trip id="bg36" type="bus" depart="139" fromLonLat="103.98783889032413,1.3912442113907335" toLonLat="103.97000261327119,1.3588884220225592" /><trip id="bg37" type="bus" depart="145" fromLonLat="103.9651340178514,1.3681452247180734" toLonLat="103.96985232413451,1.371587925359676" /><trip id="delivery889" type="delivery" depart="147" from="694303313" to="-665769019" /><trip id="bg38" type="car" depart="151" fromLonLat="104.02494903277707,1.3215276405186778" toLonLat="103.97497122116691,1.3189334957156047" /><trip id="bg39" type="bus" depart="154" fromLonLat="103.9840860270326,1.343427044672485" toLonLat="103.96851539068795,1.371778664245042" /><trip id="bg40" type="car" depart="161" fromLonLat="103.96964530622095,1.3399804823956578" toLonLat="103.96435365573618,1.330844352747592" /><trip id="bg41" type="car" depart="162" fromLonLat="103.98876337628707,1.3872673339054487" toLonLat="103.97201431341384,1.361954091314805" /><trip id="bg42" type="bus" depart="163" fromLonLat="103.99368521971763,1.388036353368791" toLonLat="103.9649191971888,1.3593374386699424" /><trip id="bg43" type="car" depart="164" fromLonLat="104.03077561756396,1.3183813069009291" toLonLat="103.98052364279302,1.3414485866780972" /><trip id="bg44" type="car" depart="167" fromLonLat="103.96520557692666,1.3371331583734136" toLonLat="103.96745010954582,1.3706189846115082" /><trip id="delivery907" type="delivery" depart="171" from="-933237370#2" to="-645300371#1" /><trip id="bg45" type="car" depart="176" fromLonLat="103.97462525244103,1.3185760428481923" toLonLat="103.99693913744872,1.3829078336698482" /><trip id="bg46" type="motorcycle" depart="176" fromLonLat="103.98971500201776,1.3839186993141521" toLonLat="103.97429574274327,1.353943923822506" /><trip id="bg47" type="car" depart="180" fromLonLat="103.9677402067383,1.3708991679748288" toLonLat="103.96505337555331,1.3374420976452663" /><trip id="bg48" type="truck" depart="180" fromLonLat="103.96551800551484,1.370804759923452" toLonLat="104.00054611750866,1.374242238729648" /><trip id="bg49" type="bus" depart="181" fromLonLat="103.97057654535747,1.3472309908826885" toLonLat="103.9869193800762,1.3417925595121727" /><trip id="bg50" type="car" depart="182" fromLonLat="103.96872996133919,1.344996799496672" toLonLat="103.98542825135688,1.348238543994192" /><trip id="bg51" type="car" depart="182" fromLonLat="103.96561411330399,1.3555766838870846" toLonLat="103.9662677764084,1.3751843291997878" /><trip id="bg52" type="car" depart="184" fromLonLat="103.96823043363364,1.3411132299546988" toLonLat="103.97129680557025,1.3440578504545078" /><trip id="bg53" type="car" depart="186" fromLonLat="103.9682325848445,1.338764491787629" toLonLat="103.99664457734364,1.3131504942400538" /><trip id="delivery320" type="delivery" depart="190" from="849629837" to="-639673159" /><trip id="bg54" type="car" depart="194" fromLonLat="103.97097792721173,1.3269711092610708" toLonLat="103.971466153737,1.3379841211537709" /><trip id="bg55" type="truck" depart="203" fromLonLat="103.98532405546042,1.38005496548433" toLonLat="103.96909338267542,1.341453898561955" /><trip id="delivery557" type="delivery" depart="203" from="470919056#1" to="465309659#1" /><trip id="bg56" type="bus" depart="206" fromLonLat="103.98876415290688,1.3877666648014857" toLonLat="103.96764375859726,1.3688195906111147" /><trip id="bg57" type="car" depart="207" fromLonLat="103.97406995080365,1.3817087455316803" toLonLat="104.00231317264974,1.3754796447115354" /><trip id="bg58" type="car" depart="213" fromLonLat="103.96343106105367,1.33129760836437" toLonLat="103.98749554172176,1.3806828639345265" /><trip id="bg59" type="motorcycle" depart="213" fromLonLat="103.9718306548804,1.3826668970422098" toLonLat="103.96456717411672,1.3601143190286094" /><trip id="bg60" type="car" depart="218" fromLonLat="103.97648204602547,1.3187190120352528" toLonLat="103.96718500464169,1.3517347997331934" /><trip id="bg61" type="car" depart="220" fromLonLat="103.98085477351104,1.3868924073143658" toLonLat="104.0026171206741,1.314668085837663" /><trip id="bg62" type="car" depart="224" fromLonLat="103.96756878847144,1.3536335840068288" toLonLat="103.98884423069083,1.316985484729868" /><trip id="bg63" type="motorcycle" depart="240" fromLonLat="104.02787969080588,1.3226818845452266" toLonLat="104.02299460704674,1.3625864849369134" /><trip id="bg64" type="car" depart="252" fromLonLat="103.9774839336106,1.3357089164210856" toLonLat="104.01604914396572,1.31692163286386" /><trip id="bg65" type="car" depart="257" fromLonLat="103.97063758563058,1.3606225922680137" toLonLat="103.98332409459212,1.3670111057345176" /><trip id="bg66" type="truck" depart="258" fromLonLat="103.98976721745485,1.3837169993165004" toLonLat="103.9676160148587,1.3535376284506346" /><trip id="bg67" type="car" depart="263" fromLonLat="103.96417960865077,1.3240431204353962" toLonLat="104.0197986210817,1.3633752500000853" /><trip id="bg68" type="truck" depart="271" fromLonLat="104.02951493539229,1.320368481560521" toLonLat="103.96639937798248,1.3659155361813928" /><trip id="delivery118" type="delivery" depart="274" from="-1117662240#0" to="469594850#1" /><trip id="bg69" type="bus" depart="284" fromLonLat="103.96717833853795,1.3591945841752675" toLonLat="103.96847558196359,1.3191264552123598" /><trip id="bg70" type="car" depart="286" fromLonLat="103.96760058551867,1.3560153530811248" toLonLat="104.01735409592199,1.3177959875540002" /><trip id="bg71" type="truck" depart="289" fromLonLat="103.99671160820418,1.347896521533288" toLonLat="103.98777172658829,1.3145384166627487" /><trip id="bg72" type="bus" depart="295" fromLonLat="103.96454210781344,1.3341195470582474" toLonLat="103.97729689483486,1.3839751264885198" /><trip id="bg73" type="bus" depart="298" fromLonLat="103.99017682192905,1.3598657143584718" toLonLat="103.9720076005861,1.3652774241346877" /><trip id="bg74" type="car" depart="299" fromLonLat="104.01031358879918,1.3105591692739194" toLonLat="103.98208348826027,1.377455249168619" /><trip id="delivery743" type="delivery" depart="302" from="544888732#1" to="-28229872#0" /><trip id="bg75" type="car" depart="304" fromLonLat="104.026496426535,1.3607463372770585" toLonLat="103.96426531939663,1.3635877666305916" /><trip id="bg76" type="car" depart="304" fromLonLat="104.02845264740596,1.3497184836274414" toLonLat="103.98917959604773,1.3171233899237123" /><trip id="bg77" type="car" depart="306" fromLonLat="103.974063733197,1.3834207513895291" toLonLat="103.9793123156129,1.3722216838833565" /><trip id="bg78" type="car" depart="311" fromLonLat="103.97846577658855,1.318127692802295" toLonLat="103.99293472851667,1.3907847053751359" /><trip id="bg79" type="car" depart="315" fromLonLat="103.99450235392788,1.389648946680706" toLonLat="103.96791193480902,1.3517353821430051" /><trip id="delivery280" type="delivery" depart="318" from="525976007#0" to="463969353#4" /><trip id="bg80" type="bus" depart="321" fromLonLat="103.9892094012111,1.3604362807163644" toLonLat="103.9671931359402,1.368336260026911" /><trip id="bg81" type="car" depart="323" fromLonLat="103.96445417330337,1.3580615121376576" toLonLat="104.00657098897945,1.3732033143189766" /><trip id="bg82" type="car" depart="324" fromLonLat="103.96682962966908,1.3341825689193647" toLonLat="104.02569278298797,1.3614930250672777" /><trip id="bg83" type="bus" depart="325" fromLonLat="103.9724903772848,1.3588164886703262" toLonLat="103.97490452713484,1.354701497899122" /><trip id="delivery762" type="delivery" depart="325" from="1157622598" to="526572616" /><trip id="delivery981" type="delivery" depart="325" from="-526572633" to="644423593" /><trip id="bg84" type="bus" depart="341" fromLonLat="103.97186184814925,1.3723807545285642" toLonLat="103.99624254669133,1.313402259278361" /><trip id="bg85" type="car" depart="341" fromLonLat="103.96943954477426,1.3516193443476836" toLonLat="103.98049282112012,1.3782743876045387" /><trip id="bg86" type="car" depart="342" fromLonLat="103.99959423007599,1.3114012159414017" toLonLat="103.98911759298676,1.3611852380968694" /><trip id="bg87" type="car" depart="345" fromLonLat="103.98963348191727,1.359923469429917" toLonLat="103.96700702066882,1.3314414993889496" /><trip id="delivery61" type="delivery" depart="346" from="546412786" to="933237370#2" /><trip id="delivery512" type="delivery" depart="347" from="691166489" to="640023774#1" /><trip id="delivery94" type="delivery" depart="359" from="-452003159" to="644413732" /><trip id="bg88" type="motorcycle" depart="365" fromLonLat="103.99343767644862,1.3844527312274164" toLonLat="103.99943831176833,1.3736957630145223" /><trip id="bg89" type="car" depart="365" fromLonLat="103.98323969807485,1.3502448950270416" toLonLat="103.98000475685423,1.3871674840023198" /><trip id="bg90" type="car" depart="370" fromLonLat="103.9734868545574,1.3801530665904034" toLonLat="103.96803427397121,1.3698838155931001" /><trip id="bg91" type="car" depart="373" fromLonLat="103.96817231093101,1.3699215963458669" toLonLat="103.99378208011113,1.3625722128657405" /><trip id="bg92" type="car" depart="382" fromLonLat="103.97532222687852,1.3735222014961639" toLonLat="104.0209440986377,1.3179955162591703" /><trip id="bg93" type="car" depart="384" fromLonLat="103.98064665542404,1.367756786466656" toLonLat="103.99262280987911,1.3184054153303069" /><trip id="bg94" type="bus" depart="388" fromLonLat="103.97642695147445,1.3598762590104252" toLonLat="103.969616444765,1.3798472628464784" /><trip id="bg95" type="car" depart="389" fromLonLat="103.9723147140252,1.3595525606029966" toLonLat="103.98076694723925,1.3670364285784518" /><trip id="bg96" type="bus" depart="392" fromLonLat="104.02001715610133,1.3503280299659284" toLonLat="103.96455617886534,1.3673349245500428" /><trip id="bg97" type="car" depart="393" fromLonLat="103.96765955458149,1.3436336867208456" toLonLat="103.9669136990647,1.337328004944522" /><trip id="bg98" type="bus" depart="396" fromLonLat="103.9834327278794,1.3770886585734583" toLonLat="103.98395539257693,1.39098336858309" /><trip id="bg99" type="bus" depart="398" fromLonLat="103.96940121424912,1.3720313354385427" toLonLat="103.98213340216215,1.3864599374046511" /><trip id="bg100" type="car" depart="403" fromLonLat="103.9835069173967,1.344579060354415" toLonLat="103.97769318762418,1.3851972067788292" /><trip id="bg101" type="car" depart="405" fromLonLat="104.00161963161678,1.3792249803794308" toLonLat="103.96435799821552,1.339581038451487" /><trip id="bg102" type="motorcycle" depart="409" fromLonLat="103.97049143096031,1.3617126381140598" toLonLat="103.98415988291808,1.346744182789056" /><trip id="bg103" type="bus" depart="409" fromLonLat="103.97648828471293,1.3395837253966416" toLonLat="103.9887384554169,1.3169608368331858" /><trip id="bg104" type="car" depart="411" fromLonLat="104.01769692530848,1.3656979243130014" toLonLat="103.98778474949901,1.3883670679558147" /><trip id="bg105" type="car" depart="415" fromLonLat="103.97601410922083,1.3262689960254863" toLonLat="103.97025935097567,1.3500498872427522" /><trip id="bg106" type="car" depart="419" fromLonLat="103.97215147750723,1.3527780918906402" toLonLat="103.9688386843274,1.3726159017164097" /><trip id="bg107" type="bus" depart="421" fromLonLat="103.97043740139021,1.3526045859062243" toLonLat="103.96742439483396,1.3573583956606154" /><trip id="bg108" type="bus" depart="425" fromLonLat="103.96558242313185,1.3758799221559974" toLonLat="103.96913251752457,1.3616111026481597" /><trip id="bg109" type="truck" depart="430" fromLonLat="103.96947037667985,1.3746518403199421" toLonLat="103.98999531909779,1.359524609429043" /><trip id="bg110" type="car" depart="431" fromLonLat="104.00520625507606,1.3751665154522439" toLonLat="103.97237748004923,1.3820356481785652" /><trip id="bg111" type="car" depart="435" fromLonLat="103.983122939265,1.3435411617103683" toLonLat="104.01886378111064,1.364714387869676" /><trip id="bg112" type="bus" depart="435" fromLonLat="103.96862004706189,1.35712986977233" toLonLat="104.00248948215642,1.3762108071126755" /><trip id="bg113" type="bus" depart="440" fromLonLat="104.01451984191439,1.3697186107705104" toLonLat="104.00175254724745,1.3143261655003866" /><trip id="bg114" type="truck" depart="440" fromLonLat="103.96795078637109,1.3467726988814093" toLonLat="103.9716535844405,1.3833141369861652" /><trip id="bg115" type="truck" depart="440" fromLonLat="103.97532153295906,1.3757822959622656" toLonLat="103.98150400877844,1.3884872862558841" /><trip id="bg116" type="bus" depart="443" fromLonLat="103.97516295401414,1.381953095208988" toLonLat="103.96531671970753,1.3184127800243928" /><trip id="bg117" type="car" depart="444" fromLonLat="103.97400769493633,1.3845679156299298" toLonLat="103.96947085859561,1.3500397815870646" /><trip id="bg118" type="truck" depart="450" fromLonLat="103.96985268047743,1.3582904308181365" toLonLat="103.96520840263555,1.367805859408636" /><trip id="bg119" type="bus" depart="451" fromLonLat="103.98208348826027,1.377455249168619" toLonLat="104.00140707217193,1.374026495046283" /><trip id="bg120" type="car" depart="451" fromLonLat="103.96533088581279,1.3680641695330376" toLonLat="103.96859265446834,1.36406535444483" /><trip id="bg121" type="car" depart="457" fromLonLat="103.97862064571727,1.392118652662541" toLonLat="103.96866143915177,1.3803667077619877" /><trip id="bg122" type="car" depart="458" fromLonLat="103.96682962966908,1.3341825689193647" toLonLat="103.97135422593972,1.3380576162637678" /><trip id="bg123" type="car" depart="461" fromLonLat="103.9641030787781,1.3539084450256165" toLonLat="103.96666478029657,1.374950668733775" /><trip id="bg124" type="truck" depart="461" fromLonLat="103.9892383458891,1.3880060409094457" toLonLat="103.98112719655832,1.3396479062725088" /><trip id="bg125" type="car" depart="466" fromLonLat="103.98907272140313,1.3601590583561667" toLonLat="103.9706069001349,1.3630400675558232" /><trip id="bg126" type="car" depart="467" fromLonLat="103.96451645879719,1.331188522966129" toLonLat="103.96758323669054,1.3398036680976584" /><trip id="bg127" type="bus" depart="467" fromLonLat="103.97123786093009,1.3343226477366492" toLonLat="103.97253705211749,1.342702229410458" /><trip id="bg128" type="car" depart="469" fromLonLat="104.01604914396572,1.31692163286386" toLonLat="103.97203105450797,1.3652875655202474" /><trip id="bg129" type="car" depart="472" fromLonLat="103.9769508773828,1.3267541511039973" toLonLat="103.96719078368129,1.3315261549746606" /><trip id="bg130" type="car" depart="477" fromLonLat="103.9652769496018,1.3760341098142188" toLonLat="103.99262280987911,1.3184054153303069" /><trip id="bg131" type="car" depart="482" fromLonLat="103.97134255469939,1.3813387615965818" toLonLat="103.98915227683682,1.3881338216717833" /><trip id="bg132" type="bus" depart="484" fromLonLat="104.0044730833431,1.3257486017230635" toLonLat="103.96923218780655,1.3679542343506474" /><trip id="delivery774" type="delivery" depart="486" from="646176958" to="634336181" /><trip id="bg133" type="car" depart="495" fromLonLat="103.9676588114825,1.3381135852481696" toLonLat="104.02642790623376,1.32240360108066" /><trip id="bg134" type="car" depart="498" fromLonLat="103.9643520607023,1.3372379080866021" toLonLat="103.99394983651611,1.3886485094203778" /><trip id="bg135" type="motorcycle" depart="504" fromLonLat="103.96976747344236,1.3452901432582212" toLonLat="103.96543065593622,1.3530733663661125" /><trip id="bg136" type="motorcycle" depart="507" fromLonLat="103.97131158798747,1.3357692827819463" toLonLat="103.97359263426641,1.3626615168308727" /><trip id="bg137" type="bus" depart="508" fromLonLat="104.00380442165708,1.3694756122126177" toLonLat="103.96720748310936,1.337385931941082" /><trip id="bg138" type="bus" depart="509" fromLonLat="103.97557978253182,1.3593956553655482" toLonLat="103.96437324842202,1.3537025888438303" /><trip id="delivery912" type="delivery" depart="512" from="-665758006#3" to="700092704" /><trip id="bg139" type="car" depart="516" fromLonLat="103.97718271544015,1.3652550407351303" toLonLat="103.98374630190261,1.3902148347868308" /><trip id="bg140" type="bus" depart="519" fromLonLat="103.96471300527519,1.3348801885464026" toLonLat="103.98118162259252,1.3321080521992197" /><trip id="bg141" type="bus" depart="520" fromLonLat="104.00509665652991,1.3748177504298684" toLonLat="104.02969491819734,1.3209435135285659" /><trip id="bg142" type="car" depart="521" fromLonLat="103.97525092203173,1.338982744148196" toLonLat="104.00328170752601,1.3245164311800224" /><trip id="bg143" type="car" depart="524" fromLonLat="103.9660987150514,1.3515900543059431" toLonLat="103.99487031082015,1.3652241027518277" /><trip id="bg144" type="car" depart="526" fromLonLat="103.98980415188075,1.3284555634089443" toLonLat="103.97424899646195,1.3783364574822297" /><trip id="bg145" type="car" depart="527" fromLonLat="104.02461973090095,1.3205760576926093" toLonLat="103.98624867904941,1.3907533304676802" /><trip id="bg146" type="bus" depart="528" fromLonLat="104.02826738883078,1.3479499249587645" toLonLat="103.97139579386253,1.3512621463345451" /><trip id="bg147" type="truck" depart="530" fromLonLat="103.97219847930478,1.3568401280190578" toLonLat="103.97129680557025,1.3440578504545078" /><trip id="bg148" type="car" depart="531" fromLonLat="103.97212101967176,1.3852508649636999" toLonLat="103.98845754446818,1.316627563542202" /><trip id="bg149" type="bus" depart="532" fromLonLat="103.98298992830576,1.3829319828169164" toLonLat="103.97042785486184,1.3710760922684542" /><trip id="bg150" type="car" depart="535" fromLonLat="103.98703583468735,1.3525208857512443" toLonLat="103.99881105939193,1.388263423199301" /><trip id="bg151" type="car" depart="538" fromLonLat="103.96995815584147,1.371483220936578" toLonLat="103.98622005701597,1.390637169559811" /><trip id="bg152" type="car" depart="538" fromLonLat="104.00462165542913,1.312621353007507" toLonLat="103.99211470640455,1.3904756181626035" /><trip id="bg153" type="truck" depart="541" fromLonLat="104.02589048324243,1.3213563201286167" toLonLat="103.97361168031928,1.383958417971077" /><trip id="bg154" type="car" depart="543" fromLonLat="103.98101363656355,1.3905616423168563" toLonLat="103.9712884312559,1.3832562655376246" /><trip id="bg155" type="car" depart="544" fromLonLat="103.98350357594938,1.3911747634180445" toLonLat="104.0006735398951,1.381208070287929" /><trip id="delivery304" type="delivery" depart="549" from="639891573#0" to="646328808" /><trip id="bg156" type="car" depart="550" fromLonLat="103.9711495859652,1.3632482637824535" toLonLat="103.97199557709445,1.3751384236365736" /><trip id="bg157" type="car" depart="553" fromLonLat="103.98825850191672,1.3569416509314722" toLonLat="103.96525451070299,1.3759628192906357" /><trip id="bg158" type="bus" depart="556" fromLonLat="103.97459753298818,1.3654919277043644" toLonLat="103.99180905859532,1.3906089131337969" /><trip id="bg159" type="bus" depart="559" fromLonLat="104.00424808326302,1.3744333965055266" toLonLat="103.98423981416833,1.3183706890125926" /><trip id="bg160" type="car" depart="561" fromLonLat="103.98188821900513,1.3402311377565015" toLonLat="103.96542940316128,1.3475336396397979" /><trip id="bg161" type="car" depart="561" fromLonLat="103.9794085534623,1.381782612035812" toLonLat="103.96695331820192,1.3493506840635916" /><trip id="bg162" type="truck" depart="562" fromLonLat="103.96676150060583,1.3496084973802525" toLonLat="103.9671541415494,1.331459743452878" /><trip id="bg163" type="truck" depart="563" fromLonLat="103.9670471958095,1.3316569869539585" toLonLat="103.99477308262269,1.3402785572239628" /><trip id="bg164" type="bus" depart="563" fromLonLat="103.98812629501167,1.356066048039779" toLonLat="103.98183023278956,1.3676248612083661" /><trip id="bg165" type="car" depart="568" fromLonLat="103.99807568838459,1.3892684676516176" toLonLat="103.9789621465462,1.3876109096901108" /><trip id="bg166" type="bus" depart="569" fromLonLat="103.96817649412962,1.3514055049458373" toLonLat="103.9891994963165,1.388056861846468" /><trip id="bg167" type="car" depart="569" fromLonLat="103.98393290166102,1.390191848737736" toLonLat="103.97551243747876,1.3170056053380155" /><trip id="bg168" type="bus" depart="570" fromLonLat="103.96682962966908,1.3341825689193647" toLonLat="103.9965089785822,1.3128606097688156" /><trip id="bg169" type="truck" depart="572" fromLonLat="104.00317360350284,1.3134020659563794" toLonLat="103.96555413466412,1.3383859660152786" /><trip id="bg170" type="car" depart="573" fromLonLat="103.97236176052739,1.3853554490024556" toLonLat="103.98901711823208,1.3585704033888066" /><trip id="bg171" type="bus" depart="575" fromLonLat="103.97922519224132,1.392078752695646" toLonLat="103.98369821939819,1.372439215767748" /><trip id="bg172" type="car" depart="579" fromLonLat="103.97006909662034,1.3273961523532265" toLonLat="103.96502817218465,1.3475766164776788" /><trip id="bg173" type="car" depart="595" fromLonLat="103.96484135034348,1.339383593718502" toLonLat="103.97747754529757,1.3783132501110518" /><trip id="bg174" type="car" depart="597" fromLonLat="103.96592445315848,1.359825620606701" toLonLat="103.9649191971888,1.3593374386699424" /><trip id="bg175" type="car" depart="599" fromLonLat="104.01068682889125,1.3398301598786753" toLonLat="103.96944525800873,1.3351966208007844" /><trip id="delivery314" type="delivery" depart="600" from="-644641000" to="544007140" /><trip id="bg176" type="bus" depart="606" fromLonLat="103.98419700205717,1.3437028985815438" toLonLat="104.02565302827915,1.3611147978577578" /><trip id="bg177" type="car" depart="609" fromLonLat="103.97690430620008,1.3776612516854037" toLonLat="103.973573993053,1.3840234408665513" /><trip id="bg178" type="bus" depart="611" fromLonLat="103.97430251224323,1.3847444371667146" toLonLat="104.01604914396572,1.31692163286386" /><trip id="delivery313" type="delivery" depart="615" from="-826162744#1" to="644504092" /><trip id="bg179" type="car" depart="620" fromLonLat="103.96612495561101,1.3312578597096647" toLonLat="103.97196055425299,1.379682383555505" /><trip id="bg180" type="car" depart="625" fromLonLat="103.9759382202781,1.3910160643314693" toLonLat="103.97563404546032,1.3896101227189" /><trip id="bg181" type="car" depart="638" fromLonLat="103.97332159984796,1.3523436682431291" toLonLat="104.0000582783867,1.377848081199321" /><trip id="bg182" type="car" depart="640" fromLonLat="104.01736081366725,1.3176255649452968" toLonLat="103.9677737955039,1.350238516718006" /><trip id="bg183" type="car" depart="648" fromLonLat="103.96588684456826,1.3405658693522844" toLonLat="103.9740998533665,1.3642742392783624" /><trip id="bg184" type="bus" depart="650" fromLonLat="104.01535065521469,1.3172754126642885" toLonLat="103.96998409413662,1.33233159271031" /><trip id="bg185" type="motorcycle" depart="650" fromLonLat="103.96230190090094,1.3442234481196376" toLonLat="103.9650227573411,1.362872030694125" /><trip id="bg186" type="bus" depart="652" fromLonLat="103.98710302079506,1.3900369073407863" toLonLat="103.97004092678318,1.3378732511752316" /><trip id="bg187" type="car" depart="652" fromLonLat="103.9676491309772,1.3523773396341954" toLonLat="103.96896300826138,1.3725644851249563" /><trip id="bg188" type="car" depart="656" fromLonLat="103.98862622680929,1.3876746996894833" toLonLat="103.96502992586286,1.3708991665073085" /><trip id="bg189" type="truck" depart="656" fromLonLat="103.97069715176734,1.3708163231486157" toLonLat="103.96939464357419,1.3352293452165753" /><trip id="bg190" type="car" depart="658" fromLonLat="103.98980648120731,1.3606125645764482" toLonLat="103.97528237361375,1.3771908919941487" /><trip id="bg191" type="bus" depart="663" fromLonLat="103.99113081723335,1.3162517128855384" toLonLat="103.9769508773828,1.3267541511039973" /><trip id="bg192" type="car" depart="667" fromLonLat="103.96893051703822,1.3341534238635613" toLonLat="103.97482600613692,1.3298067690376112" /><trip id="bg193" type="car" depart="668" fromLonLat="103.96855263041986,1.3310174507921455" toLonLat="103.99049653756394,1.3563580490231608" /><trip id="bg194" type="car" depart="674" fromLonLat="103.9754364469292,1.3756676447955059" toLonLat="103.97800173424906,1.3875227479346213" /><trip id="bg195" type="car" depart="676" fromLonLat="103.96975698958494,1.34885191