<?xml version="1.0" encoding="UTF-8"?>

<!-- generated on 2025-07-07 18:54:11 by Eclipse SUMO duarouter Version 1.23.1
<duarouterConfiguration xmlns:xsi="http://www.w3.org/2001/XMLSchema-instance" xsi:noNamespaceSchemaLocation="http://sumo.dlr.de/xsd/duarouterConfiguration.xsd">

    <input>
        <net-file value="data/raw/sumo/nus/nus.net.xml"/>
        <route-files value="data/raw/sumo/nus/nus_full.weather_adjusted.trips.xml"/>
    </input>

    <output>
        <output-file value="data/raw/sumo/nus/nus_full.rou.xml"/>
    </output>

    <report>
        <ignore-errors value="true"/>
    </report>

</duarouterConfiguration>
-->

<routes xmlns:xsi="http://www.w3.org/2001/XMLSchema-instance" xsi:noNamespaceSchemaLocation="http://sumo.dlr.de/xsd/routes_file.xsd">
    <vType id="truck" length="8.00" maxSpeed="20.00" color="yellow" accel="2.6" decel="4.5" sigma="0.5"/>
    <vehicle id="bg1" type="truck" depart="7.00">
        <route edges="670152686 634317058#1 -634317050#0 -438927634 -669865702 -676149620#1 -676149620#0 -644429784 -640173907#2 -640173907#1 -640173907#0 -640173906 -640173905 -640173903 -669608621 -161886048#0 -792090598#1 -792090598#0 -40840643#1 -40840643#0 -640177087 -640177086"/>
    </vehicle>
    <vType id="car" length="5.00" maxSpeed="25.00" color="white" accel="2.6" decel="4.5" sigma="0.5"/>
    <vehicle id="bg2" type="car" depart="8.00">
        <route edges="480425902#1 480427090 140081225#1 161647492 738258072 479358598 635641757 639974683#0 639974683#1 161888203#0 161888203#1 161888203#2 741897246#1 161886040 161888204 671425493#0 671425493#1 635647576#0 635647576#1 634148645#0 634148645#1 -83999092 -691623138 -728057204#3 -728057204#2 -728057204#1 -728057204#0 -539777716#4 -539777716#3 -539777716#2 -539777716#1 539777718 539777712#0 539777712#1 539777712#2 539777712#3 539777712#4 539777711 769560988 647095919 539777717#2 539777717#3 639915768#1"/>
    </vehicle>
    <vehicle id="bg4" type="car" depart="26.00">
        <route edges="-669051544 -741897246#0 -161888203#1 -161888203#0 -639974683#1 -639974683#0 -635641757 -479358598 161888197#1 479342452#0 667718877 633813476 479358599 399017462 479363928 479363929#0 479363929#1 652155956 740961041 634714988 121291660 743315067 1057560068 141905627 738258059#1 161888196 161972817 161972820 742063248 141915279#0 141915279#1"/>
    </vehicle>
    <vType id="bus" length="12.00" maxSpeed="18.00" color="red" accel="2.6" decel="4.5" sigma="0.5"/>
    <vehicle id="bg5" type="bus" depart="29.00">
        <route edges="-639741610 -635647576#0 -671425493#1 -671425493#0 -161888204 -161886040 -669051544 -741897246#0 -161888203#1 -161888203#0 -639974683#1 -639974683#0 -635641757 -479358598 161886034 738258064 161647494#0 75044397#1 480425910#1 638460391"/>
    </vehicle>
    <vehicle id="bg7" type="car" depart="38.00">
        <route edges="633813476 479358599 399017462 479363928 479363929#0 479363929#1 652155956 740961041 743353308 121291664 161888200 161888201 743354173 634705636 743352287 743352286 140083248 738258071 479363931 738258069 738258068#0 738258068#1 738258068#2 738258067 479363930#1 479363930#2 738258066 635370041#0 479358598 635641757 639974683#0 639974683#1 161888203#0 161888203#1 161888203#2 741897246#1 161886040 161888204 671425493#0 671425493#1 635647576#0 635647576#1 634148645#0 634148645#1 635371845 142084664#1 161886032#0 670138712 40840635#1 40840635#2 859503830#1 670138713 634215361 640177086 640177087 40840643#0 40840643#1 792090598#0 792090598#1 792090598#2 161886048#1 640173903 640173905 640173906 640173907#0 640173907#1 640173907#2 640173904 438742633#1 676149620#1 438927632"/>
    </vehicle>
    <vehicle id="bg8" type="car" depart="41.00">
        <route edges="539777718 539777720 539777716#1 539777716#2 539777716#3 539777716#4 728057204#0 728057204#1 728057204#2 728057204#3 691623138 161886032#0 670138712 40840635#1 40840635#2 859503830#1 670138713 634215361 640177086 640177087 40840643#0 40840643#1 792090598#0 792090598#1 792090598#2 161886048#1 640173903 640173905 640173906 640173907#0 640173907#1 640173907#2 640173904 438742633#1 676149620#1 438927632 438927634 671442362 -634317058#1 -634317058#0 -639891243 -669056614 -40840226#2 -40840226#1 -40840226#0 -634934091"/>
    </vehicle>
    <vType id="motorcycle" length="2.00" maxSpeed="28.00" color="blue" accel="2.6" decel="4.5" sigma="0.5"/>
    <vehicle id="bg10" type="motorcycle" depart="47.00">
        <route edges="539777713 539777720 539777716#1"/>
    </vehicle>
    <vehicle id="bg11" type="bus" depart="52.00">
        <route edges="173767931"/>
    </vehicle>
    <vehicle id="bg13" type="car" depart="59.00">
        <route edges="479115440#8 479115440#9 652160524#1 652160524#2 652160524#3 652160524#4 539777716#1 539777716#2 539777716#3 539777716#4 728057204#0 728057204#1 728057204#2 728057204#3 691623138 83999092 -634148645#1 -634148645#0 -639741610 -635647576#0 -671425493#1 -671425493#0 -161888204 -161886040 -669051544 -741897246#0 -161888203#1 -161888203#0 -639974683#1 -639974683#0 -635641757 -479358598 161888197#1 479342452#0 667718877 633813476 479358599 399017462 479363928 479363929#0 479363929#1 652155956 740961041 634714988 121291660 743315067 1057560068 141905627 738258059#1 161888196 161972817"/>
    </vehicle>
    <vehicle id="bg17" type="bus" depart="67.00">
        <route edges="738258068#1 738258068#2 738258067 479363930#1 479363930#2 738258066 635370041#0 479358598 635641757 639974683#0 639974683#1 161888203#0 161888203#1 161888203#2 741897246#1 161886040 161888204 671425493#0 671425493#1 635647576#0 635647576#1 634148645#0 634148645#1 635371845 142084664#1 161886032#0 670138712 40840635#1 40840635#2 859503830#1 670138713 634215361 640177086 640177087 40840643#0 40840643#1 792090598#0 792090598#1 792090598#2 161886048#1 640173903 640173905 640173906 640173907#0 640173907#1 640173907#2 640173904 438742633#1 676149620#1 438927632 438927634 671442362 -634317058#1 -634317058#0 -639891243 -669056614 -40840226#2 -40840226#1 -40840226#0"/>
    </vehicle>
    <vehicle id="bg18" type="car" depart="69.00">
        <route edges="744666005 744670301 744666010 632362051#1 734033119#1 666705227#1 647087598#1 744666012#1 744657450 744666009 744699289#0 744699289#1 744699287 744699284 46648190 161888208 109044021 847051687 688475488 573272651#0 573272651#1 479379761 824418429 479371790#0 479371790#1 161888205#2 173896272#0 173896274#1 399017458#0 -634317055#0 -161886043 -634317050#0 -438927634 -669865702 -676149620#1 -676149620#0 438742633#1 676149620#1 438927632 438927634"/>
    </vehicle>
    <vehicle id="bg19" type="motorcycle" depart="71.00">
        <route edges="640278283#1 634934091 40840226#0 40840226#1 40840226#2 40840226#3 639891243 670152686 634317058#1 161886043 634317055#0 -634317055#0 -161886043 -634317058#1 -634317058#0 -639891243 -669056614 -40840226#2 -40840226#1 -40840226#0 -634934091 -640278283#1 -640278283#0 -634310548 -850329569#1 -850329569#0 -863022706#1 -863022706#0 -634310551 634310551"/>
    </vehicle>
    <vehicle id="bg20" type="bus" depart="81.00">
        <route edges="540527321#0 540527321#1 792747590 792747589 792847944 792847946 792847948 121886000#0 121886000#1 -121886000#1 -121886000#0 -792847948 -792847946 -792847944 -792847941 -792747590 540527322 121886001#3 540527323 -676745541 -792825329 -634151261 -646234318 -161886031#3 -161886031#2 -161886031#1 -161886031#0 670138712 40840635#1 40840635#2 859503830#1 670138713 634215361 640177086 640177087 40840643#0 40840643#1 792090598#0 792090598#1 792090598#2 161886048#1 640173903 640173905 640173906 640173907#0 640173907#1 640173907#2 640173904 438742633#1 676149620#1 438927632 438927634 671442362 161886043 634317055#0 46648189#1 46648193#1 482127824 121762750#0 121762750#1 651866871 161886045"/>
    </vehicle>
    <vehicle id="bg22" type="truck" depart="98.00">
        <route edges="-741897246#0 -161888203#1 -161888203#0 -639974683#1 -639974683#0 -635641757 -479358598 161886034 738258064 161647494#0 75042702#0 75042702#1 161647492 738258072 479358598 635641757 639974683#0 639974683#1 161888203#0"/>
    </vehicle>
    <vehicle id="bg24" type="truck" depart="100.00">
        <route edges="-741897246#0 -161888203#1 -161888203#0 -639974683#1 -639974683#0 -635641757 -479358598 161888197#1 479342452#0 667718877 633813476 479358599 399017462 479363928 479363929#0 479363929#1 652155956 740961041 743353308 121291664 161888200 664251194 140086022 747840461 664251193 743382980 682751196#1 547650656 850046997 652569822 652569821#1 744600919 652569820 652569819#0 652569819#1 652569817 652569816 647087597 647087598#1 744666012#1 744657450 744666009 744699289#0 744699289#1 744699287 744699284 46648190 161888208 109044021 847051687 688475488 573272651#0 573272651#1 479379761 824418429 479371790#0 479371790#1 121762749#1 651866871 161886045 635327762 690617296"/>
    </vehicle>
    <vehicle id="bg25" type="car" depart="103.00">
        <route edges="103926115 -103926115 643476842#0 539777710 647095918 769560989 539777713 539777720 539777716#1 539777716#2 539777716#3 539777716#4 728057204#0 728057204#1 728057204#2 728057204#3 691623138 161886032#0 670138712 40840635#1 40840635#2 859503830#1 670138713 634215361 640177086 640177087 40840643#0 40840643#1 792090598#0 792090598#1 792090598#2 161886048#1 640173903 640173905 640173906 640173907#0 640173907#1 640173907#2 640173904 438742633#1 676149620#1 438927632 438927634 671442362 161886043 634317055#0 46648189#1 46648193#1 482127824 121762750#0 121762750#1 651866871 161886045 635327762 690617296"/>
    </vehicle>
    <vehicle id="bg26" type="car" depart="105.00">
        <route edges="742063248 161972819#0 75044401#1 161972814 161972816#1 480425899 638922217 480425900 480425902#1 480427090 140081225#1 161647492 738258072 479358598 635641757 639974683#0 639974683#1 161888203#0 161888203#1 161888203#2 741897246#1 161886040 161888204 671425493#0 671425493#1 635647576#0 635647576#1 634148645#0 634148645#1 635371845 142084664#1 161886032#0 670138712 40840635#1 40840635#2 859503830#1 670138713 634215361 640177086 640177087 40840643#0 40840643#1 792090598#0 792090598#1 792090598#2 161886048#1 640173903 640173905 640173906 640173907#0 640173907#1 640173907#2 640173904 438742633#1 676149620#1 -676149620#1 -676149620#0 -644429784 -640173907#2 -640173907#1 -640173907#0 -640173906 -640173905 -640173903 -669608621 -161886048#0 -792090598#1 -792090598#0"/>
    </vehicle>
    <vehicle id="bg27" type="car" depart="111.00">
        <route edges="634934091 40840226#0 40840226#1 40840226#2 40840226#3 639891243 670152686 634317058#1 161886043 634317055#0 46648189#1 46648193#1 482127824 121762750#0 121762750#1"/>
    </vehicle>
    <vehicle id="bg28" type="bus" depart="118.00">
        <route edges="479115440#9 652160524#1 652160524#2 652160524#3 652160524#4 539777716#1 539777716#2 539777716#3 539777716#4 728057204#0 728057204#1 728057204#2 728057204#3 691623138 83999092 -634148645#1 -634148645#0 -639741610 -635647576#0 -671425493#1 -671425493#0 -161888204 -161886040 -669051544 -741897246#0 -161888203#1 -161888203#0 -639974683#1 -639974683#0 -635641757 -479358598 161888197#1 479342452#0 667718877 633813476 479358599 399017462 479363928 479363929#0 479363929#1 652155956 740961041 743353308 121291664 161888200 664251194 140086022 747840461 664251193 743382980 682751196#1 547650656 850046997 652569822 652569821#1 744600919 652569820 652569819#0 652569819#1 652569817 652569816 647087597 647087598#1 744666012#1 744657450 744666009 744699289#0"/>
    </vehicle>
    <vehicle id="bg30" type="motorcycle" depart="118.00">
        <route edges="639974683#1 161888203#0 161888203#1 161888203#2 741897246#1 161886040 161888204 671425493#0 671425493#1 635647576#0 635647576#1 634148645#0 634148645#1 635371845 142084664#1 83999092 -634148645#1 -634148645#0 -639741610 -635647576#0 -671425493#1 -671425493#0 -161888204 -161886040 -669051544 -741897246#0 -161888203#1 -161888203#0 -639974683#1 -639974683#0 -635641757 -479358598 161886034 738258064 161647494#0 75044397#1 480425910#1 638460391 480425907#0 480425907#1 480424615 632185764#0 173767753 634721575 161972818 738258063 161972821 738258062#1 634084928#0"/>
    </vehicle>
    <vehicle id="bg31" type="truck" depart="122.00">
        <route edges="22945254 479166485#1 746594850 22945256#0 22945256#1 444356119 161647490#0 75044401#1 161972814 161972816#1 480425899 638922217 480425900 480425902#1 480427090 140081225#1 161647492 738258072 479358598 635641757 639974683#0 639974683#1 161888203#0 161888203#1 161888203#2 741897246#1 161886040 161888204 671425493#0 671425493#1 635647576#0 635647576#1 634148645#0 634148645#1 635371845 142084664#1 83999092 -634148645#1 -634148645#0 -639741610 -635647576#0"/>
    </vehicle>
    <vehicle id="bg32" type="car" depart="124.00">
        <route edges="479342452#0"/>
    </vehicle>
    <vehicle id="bg33" type="car" depart="125.00">
        <route edges="647562104 -647562104 -745349346#1 -745349346#0 -639999881 -745356719 538766099 746714120 573704873#0"/>
    </vehicle>
    <vehicle id="bg34" type="car" depart="126.00">
        <route edges="399017462"/>
    </vehicle>
    <vehicle id="bg35" type="car" depart="128.00">
        <route edges="104143838#1"/>
    </vehicle>
    <vehicle id="bg36" type="motorcycle" depart="146.00">
        <route edges="-669051544 -741897246#0 -161888203#1 -161888203#0 -639974683#1 -639974683#0 -635641757 -479358598 161886034 738258064 161647494#0 75042702#0 75042702#1 161647492 738258072 479358598 635641757 639974683#0 639974683#1 161888203#0 161888203#1 161888203#2 741897246#1 161886040 161888204 671425493#0 671425493#1 635647576#0 635647576#1 634148645#0 634148645#1 635371845 142084664#1 161886032#0 670138712 40840635#1 40840635#2 859503830#1 670138713 634215361 640177086 640177087 40840643#0 40840643#1 792090598#0 792090598#1 792090598#2 161886048#1 640173903 640173905 640173906 640173907#0 640173907#1 640173907#2 640173904 438742633#1 676149620#1 438927632 438927634 671442362 -634317058#1 -634317058#0 -639891243 -669056614 -40840226#2 -40840226#1 -40840226#0 -634934091"/>
    </vehicle>
    <vehicle id="bg37" type="car" depart="150.00">
        <route edges="399017462 479363928 479363929#0 479363929#1 652155956 740961041 743353308 121291664 161888200 161888201 743354173 634705636 743352287 743352286 140083248 738258071 479363931 738258069 738258068#0 738258068#1 738258068#2 738258067 479363930#1 479363930#2 738258066 635370041#0 479358598 635641757 639974683#0 639974683#1 161888203#0 161888203#1 161888203#2 741897246#1 161886040 161888204 671425493#0 671425493#1 635647576#0 635647576#1 634148645#0 634148645#1 -83999092 -691623138 -728057204#3 -728057204#2 -728057204#1 -728057204#0 -539777716#4 -539777716#3 -539777716#2 -539777716#1 539777718 539777712#0 539777712#1 539777712#2 539777712#3 539777712#4 539777714 643476109#0 643476109#1 103926113#1 728057206 103926121"/>
    </vehicle>
    <vehicle id="bg38" type="bus" depart="154.00">
        <route edges="479363929#0 479363929#1 652155956 740961041 743353308 121291664 161888200 664251194 140086022 747840461 664251193 743382980 682751196#1 547650656 850046997 652569822 652569821#1 744600919 652569820 652569819#0 652569819#1 652569817 652569816 647087597 647087598#1 744666012#1 744657450 744666009 744699289#0 744699289#1 744699287 744699284 46648190 161888208 109044021 847051687 688475488 573272651#0 573272651#1 479379761 824418429 479371790#0 479371790#1 161888205#2 173896272#0 173896274#1 399017458#0 -634317055#0 -161886043 -634317058#1 -634317058#0 -639891243 -669056614 -40840226#2 -40840226#1 -40840226#0 -634934091 -640278283#1 -640278283#0 -634310548 -850329569#1 -850329569#0 -863022706#1 -863022706#0 -634310551 634310551 863022706#0 863022706#1 850329569#0 850329569#1 640168605 640278283#0 640278283#1 634934091"/>
    </vehicle>
    <vehicle id="bg39" type="car" depart="155.00">
        <route edges="480425907#0 480425907#1 480424615 632185764#0 173767753 634721575 161972818 738258063 161972821 738258062#1 634084928#0 634084928#1 161888195 738258060#1 738258060#2 1084099105 1057560067 1057560066#0 1057560066#1 141902223 743315066 161888200 664251194 140086022 747840461 664251193 743382980 682751196#1 547650656 850046997 652569822 652569821#1 744600919 652569820 652569819#0 652569819#1 652569817 652569816 647087597 647087598#1 744666012#1 744657450 744666009 744699289#0 744699289#1 744699287 744699284 46648190 161888208 109044021 847051687 688475488 573272651#0 573272651#1 479379761 824418429 479371790#0 479371790#1 161888205#2 173896272#0 173896274#1 399017458#0 -634317055#0 -161886043 -634317058#1 -634317058#0 -639891243 -669056614 -40840226#2 -40840226#1 -40840226#0 -634934091 -640278283#1 -640278283#0 -634310548 -850329569#1 -850329569#0 -863022706#1 -863022706#0 -634310551 634310551 863022706#0 863022706#1 850329569#0 850329569#1 640168605"/>
    </vehicle>
    <vehicle id="bg40" type="car" depart="159.00">
        <route edges="639915767#1 639915767#2 539777710 647095918 769560989 539777713 539777720 539777716#1 539777716#2 539777716#3 539777716#4 728057204#0 728057204#1 728057204#2 728057204#3 691623138 161886032#0 670138712 40840635#1 40840635#2 859503830#1 670138713 634215361 640177086 640177087 40840643#0 40840643#1 792090598#0 792090598#1 792090598#2 161886048#1 640173903 640173905 640173906 640173907#0 640173907#1 640173907#2 640173904 438742633#1 676149620#1 438927632 438927634 671442362 161886043 634317055#0 46648189#1 46648193#1 482127824 121762750#0 121762750#1 651866871 161886045 635327762 690617296 690616811 690623483 688475487#0 688475487#1 711062910 573272648#0 573272648#1 635749559#0 635749559#1 46648084 161888208 109044021"/>
    </vehicle>
    <vehicle id="bg42" type="car" depart="162.00">
        <route edges="539777711 769560988 647095919 539777710 647095918 769560989 539777713 539777720 539777716#1 539777716#2 539777716#3 539777716#4 728057204#0 728057204#1 728057204#2 728057204#3 691623138 161886032#0 670138712 40840635#1 40840635#2 859503830#1 670138713 634215361 640177086 640177087 40840643#0 40840643#1 792090598#0 792090598#1 792090598#2 161886048#1 640173903 640173905 640173906 640173907#0 640173907#1 640173907#2 640173904 438742633#1 676149620#1 438927632"/>
    </vehicle>
    <vehicle id="bg45" type="motorcycle" depart="176.00">
        <route edges="850329569#1 640168605 640278283#0 640278283#1 634934091 40840226#0 40840226#1 40840226#2 40840226#3 639891243 670152686 634317058#1 161886043 634317055#0 46648189#1 46648193#1 482127824 161886051#0 161886051#1 75007281 44628873 230638330#1 528461168#1 75044389-AddedOnRampEdge 75044389 528461160 528461163 528461163-AddedOffRampEdge 22945254 479166485#1 746594850 22945256#0 22945256#1 444356119 161647490#0 75044401#1 161972814 161972816#1 480425899 638922217 480425900 480425902#1"/>
    </vehicle>
    <vehicle id="bg46" type="car" depart="179.00">
        <route edges="479363930#2 738258066 635370041#0 479358598 635641757 639974683#0 639974683#1 161888203#0 161888203#1 161888203#2 741897246#1 161886040 161888204 671425493#0 671425493#1 635647576#0 635647576#1 634148645#0 634148645#1 635371845 142084664#1 161886032#0 670138712 40840635#1 40840635#2 859503830#1 670138713 634215361 640177086 640177087 40840643#0 40840643#1 792090598#0 792090598#1 792090598#2 161886048#1 640173903 640173905 640173906 640173907#0 640173907#1 640173907#2 640173904 438742633#1 676149620#1 438927632 438927634 671442362 161886043 634317055#0 46648189#1 482090269#1 482082472 571466824"/>
    </vehicle>
    <vehicle id="bg47" type="car" depart="180.00">
        <route edges="-669056614 -40840226#2 -40840226#1 -40840226#0 -634934091 -640278283#1 -640278283#0 -634310548 -850329569#1 -850329569#0 -863022706#1 -863022706#0 -634310551 634310551 863022706#0 863022706#1 850329569#0 850329569#1 640168605"/>
    </vehicle>
    <vehicle id="bg48" type="truck" depart="180.00">
        <route edges="-161886031#1 -161886031#0 -161886032#0 83999092 -634148645#1 -634148645#0 -639741610 -635647576#0 -671425493#1 -671425493#0 -161888204 -161886040 -669051544 -741897246#0 -161888203#1 -161888203#0 -639974683#1 -639974683#0 -635641757 -479358598 161886034"/>
    </vehicle>
    <vehicle id="bg49" type="car" depart="182.00">
        <route edges="46648189#1 46648193#1 482127824 121762750#0 121762750#1 651866871 161886045 635327762 690617296 690616811 690623483 688475487#0 688475487#1 711062910 573272648#0 573272648#1 635749559#0 635749559#1 46648191 758260420 744699290 744666005 744670301 744666010 632362051#1 734033119#1 666705227#1 -744657451 -744633324#0 -652569823 -744611504 -652569819#0 -744611505 -744600919 -652569821#1 -652569822 -850046997 -547650656 -744584015 -682751196#0 -664251193 -747840461 547650658 743354173 634705636 743352287 743352286 140083248 738258071 479363931 738258069 738258068#0 738258068#1 738258068#2"/>
    </vehicle>
    <vehicle id="bg51" type="car" depart="186.00">
        <route edges="738258060#1 738258060#2 1084099105 1057560067 1057560066#0 1057560066#1 141902223 743315066 161888200 664251194 140086022 747840461 664251193 743382980 682751196#1 547650656 850046997 652569822 652569821#1 744600919 652569820 652569819#0 652569819#1 652569817 652569816 647087597 647087598#1 744666012#1 744657450 744666009 744699289#0 744699289#1 744699287 744699284 46648190 161888208 109044021 847051687 688475488 573272651#0 573272651#1 479379761 824418429 479371790#0 479371790#1 161888205#2 173896272#0 46648193#1 482127824"/>
    </vehicle>
    <vehicle id="bg52" type="truck" depart="186.00">
        <route edges="479115440#4 479115440#5 479115440#6 479115440#8 479115440#9 652160524#1 652160524#2 652160524#3 652160524#4 539777716#1 539777716#2 539777716#3 539777716#4 728057204#0 728057204#1 728057204#2 728057204#3 691623138 161886032#0 670138712 40840635#1 40840635#2 859503830#1 670138713 634215361 640177086 640177087 40840643#0 40840643#1 792090598#0 792090598#1 792090598#2 161886048#1 640173903 640173905 640173906 640173907#0 640173907#1 640173907#2 640173904 438742633#1 676149620#1 438927632 438927634 671442362 -634317058#1 -634317058#0 -639891243 -669056614 -40840226#2 -40840226#1 -40840226#0 -634934091 -640278283#1 -640278283#0 -634310548 -850329569#1 -850329569#0 -863022706#1 -863022706#0 -634310551 634310551 863022706#0 863022706#1 850329569#0 850329569#1 640168605 640278283#0 640278283#1"/>
    </vehicle>
    <vehicle id="bg54" type="car" depart="192.00">
        <route edges="174552479"/>
    </vehicle>
    <vehicle id="bg56" type="car" depart="196.00">
        <route edges="-1319768709#1 -1319768709#0 655702302#0 46648189#1 46648193#1 482127824 121762750#0 121762750#1 651866871 161886045 635327762 690617296 690616811 690623483 688475487#0 688475487#1 711062910 573272648#0 573272648#1 635749559#0 635749559#1 46648191 758260420 744699290 744666005 744670301 744666010 632362051#1 734033119#1 666705227#1 -744657451 -744633324#0 -652569823 -744611504 -652569819#0 -744611505 -744600919 -652569821#1 -652569822 -850046997 -547650656 -744584015 -682751196#0 -664251193 -747840461 547650658 743354173 22277789 740961041 743353308 121291664 161888200 664251194 140086022 747840461 664251193 743382980 682751196#1 547650656 850046997 652569822 652569821#1 744600919 652569820 652569819#0 652569819#1 652569817 652569816"/>
    </vehicle>
    <vehicle id="bg57" type="truck" depart="203.00">
        <route edges="161972821 738258062#1 634084928#0 634084928#1 161888195 738258060#1 738258060#2 1084099105 1057560067 1057560066#0 1057560066#1 141902223 743315066 161888200 664251194 140086022 747840461 664251193 743382980 682751196#1 547650656 850046997 652569822 652569821#1 744600919 652569820 652569819#0 652569819#1 652569817 652569816 647087597 647087598#1 744666012#1 744657450 744666009 744699289#0 744699289#1 744699287 744699284 46648190 161888208 847860721 635749559#0 635749559#1"/>
    </vehicle>
    <vehicle id="bg58" type="bus" depart="206.00">
        <route edges="161888203#2 741897246#1 161886040 161888204 671425493#0 671425493#1 635647576#0 635647576#1 634148645#0 634148645#1 -83999092 -691623138 -728057204#3 -728057204#2 -728057204#1 -728057204#0 -539777716#4 -539777716#3 -539777716#2 -539777716#1 539777718 539777712#0 539777712#1 539777712#2 539777712#3 539777712#4 539777714 643476109#0 643476109#1 103926128 647095920#0 647095920#1"/>
    </vehicle>
    <vehicle id="bg59" type="car" depart="207.00">
        <route edges="738258068#0 738258068#1"/>
    </vehicle>
    <vehicle id="bg60" type="car" depart="210.00">
        <route edges="528461163 528461163-AddedOffRampEdge 22945254 479166485#1 746594850 22945256#0 22945256#1 444356119 161647490#0 75044401#1 161972814 161972816#1 480425899 638922217 480425900 480425902#1 480427090 140081225#1 161647492 738258072 479358598 635641757 639974683#0 639974683#1 161888203#0 161888203#1 161888203#2 741897246#1 161886040 161888204 671425493#0 671425493#1 635647576#0 635647576#1 634148645#0 634148645#1 635371845 142084664#1 83999092 -634148645#1 -634148645#0 -639741610 -635647576#0 -671425493#1 -671425493#0 -161888204 -161886040 -669051544"/>
    </vehicle>
    <vehicle id="bg62" type="car" depart="224.00">
        <route edges="444356119 161647490#0 75044401#1 161972814 161972816#1 480425899 638922217 480425900 480425902#1 480427090 140081225#1 161647492 738258072 479358598 635641757 639974683#0 639974683#1 161888203#0 161888203#1 161888203#2 741897246#1 161886040 161888204 671425493#0 671425493#1 635647576#0 635647576#1 634148645#0 634148645#1 635371845 142084664#1 161886032#0 670138712 40840635#1 40840635#2 859503830#1 670138713 634215361 640177086 640177087 40840643#0 40840643#1 792090598#0 792090598#1 792090598#2 161886048#1 640173903 640173905 640173906 640173907#0 640173907#1 640173907#2 640173904 438742633#1 676149620#1 -676149620#1 -676149620#0 -644429784 -640173907#2 -640173907#1 -640173907#0 -640173906 -640173905 -640173903 -669608621 -161886048#0 -792090598#1 -792090598#0 -40840643#1"/>
    </vehicle>
    <vehicle id="bg63" type="car" depart="225.00">
        <route edges="1312524328#1 75007284#0 161888205#2 173896272#0 173896274#1 399017458#0 -634317055#0 -161886043 -634317058#1 -634317058#0 -639891243 -669056614 -40840226#2 -40840226#1 -40840226#0"/>
    </vehicle>
    <vehicle id="bg64" type="car" depart="229.00">
        <route edges="438927632 438927634 671442362 161886043 634317055#0 46648189#1 46648193#1 482127824 161886051#0 161886051#1 75007281 44628873 230638330#1 528461168#1 75044389-AddedOnRampEdge 75044389 528461160 528461163 528461163-AddedOffRampEdge 22945254 479166485#1 746594850 22945256#0 22945256#1 444356119 161647490#0 75044401#1 161972814 161972816#1 480425899 638922217 480425900 480425902#1 480427090 140081225#1 161647492 738258072 161888197#1"/>
    </vehicle>
    <vehicle id="bg65" type="bus" depart="239.00">
        <route edges="690617296 690616811 690623483 688475487#0 688475487#1 688475489 688475488 573272651#0 573272651#1 479379761 824418429 479371790#0 479371790#1 161888205#2 173896272#0 173896274#1 399017458#0 -634317055#0 -161886043 -634317050#0 -438927634 -669865702 -676149620#1 -676149620#0 -644429784 -640173907#2 -640173907#1 -640173907#0 -640173906 -640173905 -640173903 -669608621 -161886048#0 -792090598#1 -792090598#0 -40840643#1 -40840643#0 -640177087"/>
    </vehicle>
    <vehicle id="bg67" type="car" depart="246.00">
        <route edges="480425902#1 480427090 140081225#1 161647492 738258072 479358598 635641757 639974683#0 639974683#1 161888203#0 161888203#1 161888203#2 741897246#1 161886040 161888204 671425493#0 671425493#1 635647576#0 635647576#1 634148645#0 634148645#1 635371845 142084664#1 161886032#0 670138712 40840635#1 40840635#2 859503830#1 670138713 634215361 640177086 640177087 40840643#0 40840643#1 792090598#0 792090598#1 792090598#2 161886048#1 640173903 640173905 640173906 640173907#0 640173907#1 640173907#2 640173904 438742633#1 676149620#1 -676149620#1 -676149620#0 -644429784 -640173907#2 -640173907#1 -640173907#0 -640173906 -640173905 -640173903 -669608621 -161886048#0 -792090598#1 -792090598#0 -40840643#1 -40840643#0 -640177087"/>
    </vehicle>
    <vehicle id="bg68" type="bus" depart="247.00">
        <route edges="573704870#1"/>
    </vehicle>
    <vehicle id="bg70" type="bus" depart="253.00">
        <route edges="174552479"/>
    </vehicle>
    <vType id="delivery" length="5.00" maxSpeed="20.00" color="green" accel="2.6" decel="4.5" sigma="0.5"/>
    <vehicle id="delivery931" type="delivery" depart="259.00">
        <route edges="479115440#2 479115440#3 479115440#4 479115440#5 479115440#6 479115440#8 479115440#9 652160524#1 652160524#2 652160524#3 652160524#4 539777716#1 539777716#2 539777716#3 539777716#4 728057204#0 728057204#1 728057204#2 728057204#3 691623138 161886032#0 161886031#0 161886031#1 161886031#2 161886031#3 646234318 634151261 645158729 676745541 540527324 121886001#1 121886001#2 121886001#3 540527323 -676745541 -792825329 -634151261 -646234318"/>
    </vehicle>
    <vehicle id="bg74" type="car" depart="273.00">
        <route edges="634721575 161972818 738258063 161972821 738258062#1 634084928#0 634084928#1 161888195 738258060#1 738258060#2 1084099105 1057560067 1057560066#0 1057560066#1 141902223 743315066 161888200 664251194 140086022 747840461 664251193 743382980 682751196#1 547650656 850046997 652569822 652569821#1 744600919 652569820 652569819#0 652569819#1 652569817 652569816 647087597 647087598#1 744666012#1 744657450 744666009 744699289#0 744699289#1 744699287 744699284 46648190 161888208 109044021 847051687 688475488 573272651#0 573272651#1 479379761 824418429 479371790#0 479371790#1 161888205#2 173896272#0 173896274#1 399017458#0 -634317055#0 -161886043 -634317058#1 -634317058#0 -639891243 -669056614 -40840226#2 -40840226#1 -40840226#0 -634934091 -640278283#1 -640278283#0 -634310548 -850329569#1 -850329569#0 -863022706#1 -863022706#0 -634310551 634310551 863022706#0 863022706#1 850329569#0 850329569#1 640168605 640278283#0 640278283#1"/>
    </vehicle>