<?xml version='1.0' encoding='utf-8'?>
<trips><vType id="car" accel="2.6" decel="4.5" sigma="0.5" length="5" maxSpeed="25" color="white" /><vType id="bus" accel="2.6" decel="4.5" sigma="0.5" length="12" maxSpeed="18" color="red" /><vType id="truck" accel="2.6" decel="4.5" sigma="0.5" length="8" maxSpeed="20" color="yellow" /><vType id="motorcycle" accel="2.6" decel="4.5" sigma="0.5" length="2" maxSpeed="28" color="blue" /><vType id="delivery" accel="2.6" decel="4.5" sigma="0.5" length="5" maxSpeed="20" color="green" /><trip id="bg0" type="car" depart="1" fromLonLat="103.78092619848245,1.2936544601260922" toLonLat="103.77871719900794,1.2904586261759334" /><trip id="bg1" type="truck" depart="7" fromLonLat="103.781352125852,1.2928285670744042" toLonLat="103.7756745837846,1.2943830379742842" /><trip id="bg2" type="car" depart="8" fromLonLat="103.77038144079472,1.2970073593061047" toLonLat="103.7694405832106,1.2916294557162311" /><trip id="delivery1514" type="delivery" depart="13" from="-526855209" to="728069005" /><trip id="delivery1562" type="delivery" depart="16" from="-309856652#1" to="-1146513630#0" /><trip id="bg3" type="bus" depart="26" fromLonLat="103.76931674559545,1.292931537830967" toLonLat="103.78041797817743,1.2974270602228077" /><trip id="bg4" type="car" depart="26" fromLonLat="103.77181497085516,1.2939785587940045" toLonLat="103.77057661231802,1.3013348461175303" /><trip id="bg5" type="bus" depart="29" fromLonLat="103.773394126574,1.293107824473302" toLonLat="103.76971521951991,1.299276556929021" /><trip id="bg6" type="car" depart="35" fromLonLat="103.78399785892556,1.3026833424184234" toLonLat="103.77055937785482,1.294967126734768" /><trip id="bg7" type="car" depart="38" fromLonLat="103.77242902682936,1.296825466211662" toLonLat="103.78118563333919,1.2904894860695473" /><trip id="bg8" type="car" depart="41" fromLonLat="103.77338053831038,1.2905219811061648" toLonLat="103.78029808770353,1.2957457696941233" /><trip id="bg9" type="car" depart="41" fromLonLat="103.78258546859963,1.2979749844542336" toLonLat="103.77292639056753,1.2973325103968403" /><trip id="bg10" type="motorcycle" depart="47" fromLonLat="103.77204747586858,1.291146174630814" toLonLat="103.77340840239573,1.29070000382429" /><trip id="bg11" type="bus" depart="52" fromLonLat="103.77348347188108,1.294947296266389" toLonLat="103.77281272135001,1.288879733799441" /><trip id="bg12" type="bus" depart="53" fromLonLat="103.77191678759095,1.3005127538904995" toLonLat="103.78088826282617,1.301746827117127" /><trip id="bg13" type="car" depart="59" fromLonLat="103.7742818444588,1.289759004738991" toLonLat="103.77160469852714,1.300825654575128" /><trip id="bg14" type="car" depart="61" fromLonLat="103.77314200489734,1.3012087470988205" toLonLat="103.77412096229739,1.2995204901583033" /><trip id="bg15" type="car" depart="62" fromLonLat="103.77636377540925,1.2895386771684607" toLonLat="103.78429118903709,1.3002567431400682" /><trip id="bg16" type="car" depart="64" fromLonLat="103.78164969734428,1.2976938580313877" toLonLat="103.7724729372434,1.2933513247886408" /><trip id="bg17" type="bus" depart="67" fromLonLat="103.77299921031604,1.296720187199361" toLonLat="103.78144237453319,1.2944829795124198" /><trip id="bg18" type="car" depart="69" fromLonLat="103.78218798884251,1.2964397289299612" toLonLat="103.78165997821988,1.2910291711417838" /><trip id="bg19" type="motorcycle" depart="71" fromLonLat="103.77771333778625,1.29500642778918" toLonLat="103.77360959350662,1.2974902299590174" /><trip id="bg20" type="bus" depart="81" fromLonLat="103.7772483325397,1.2916674395131795" toLonLat="103.78487323158151,1.2941375713769714" /><trip id="bg21" type="truck" depart="93" fromLonLat="103.77833807270703,1.290388523552464" toLonLat="103.78382856470672,1.3022641952803113" /><trip id="bg22" type="truck" depart="98" fromLonLat="103.77177318320985,1.2945354499677544" toLonLat="103.77039808249287,1.2951114089390137" /><trip id="bg23" type="bus" depart="100" fromLonLat="103.78335176616409,1.2953900520061" toLonLat="103.7743145978132,1.299963346541782" /><trip id="bg24" type="truck" depart="100" fromLonLat="103.77197379686262,1.2944836284420604" toLonLat="103.7838881748482,1.2937448955826238" /><trip id="delivery450" type="delivery" depart="100" from="728057203#1" to="22278427#2" /><trip id="bg25" type="car" depart="103" fromLonLat="103.77098924308858,1.2921250714513954" toLonLat="103.7838881748482,1.2937448955826238" /><trip id="bg26" type="car" depart="105" fromLonLat="103.77100910651468,1.3008783674160507" toLonLat="103.77707226956139,1.2939387835933605" /><trip id="bg27" type="car" depart="111" fromLonLat="103.77879828850617,1.294728090576575" toLonLat="103.78501275926658,1.2932777998750913" /><trip id="bg28" type="bus" depart="118" fromLonLat="103.77415282411637,1.2902551610569688" toLonLat="103.78225456074226,1.297049227551647" /><trip id="bg29" type="motorcycle" depart="118" fromLonLat="103.77077086993698,1.2962115744589553" toLonLat="103.78418671066615,1.3009230537415954" /><trip id="bg30" type="motorcycle" depart="118" fromLonLat="103.77034369477913,1.295146025390737" toLonLat="103.77318351633305,1.3012261341650455" /><trip id="bg31" type="truck" depart="122" fromLonLat="103.77275917561158,1.3024766938714571" toLonLat="103.77297714348194,1.2930841946290124" /><trip id="delivery1007" type="delivery" depart="122" from="1316808635#1" to="241265466#0" /><trip id="bg32" type="car" depart="124" fromLonLat="103.77162425958802,1.2971673427321628" toLonLat="103.77385361104085,1.2944561421041274" /><trip id="bg33" type="car" depart="125" fromLonLat="103.78405172248219,1.302805479019487" toLonLat="103.7842669099476,1.3010374241977216" /><trip id="bg34" type="car" depart="126" fromLonLat="103.77190780828651,1.2980778783158713" toLonLat="103.77368539061904,1.2947981490656313" /><trip id="bg35" type="car" depart="128" fromLonLat="103.76962474706889,1.2923316315281912" toLonLat="103.77181458100334,1.2987037589714798" /><trip id="delivery242" type="delivery" depart="135" from="1084099105" to="-691839259#1" /><trip id="bg36" type="motorcycle" depart="146" fromLonLat="103.77150791966292,1.2937236065481925" toLonLat="103.77970928777269,1.2947498787379232" /><trip id="bg37" type="car" depart="150" fromLonLat="103.77190780828651,1.2980778783158713" toLonLat="103.77145120721778,1.2916771078805902" /><trip id="bg38" type="bus" depart="154" fromLonLat="103.77288769222739,1.2989364733378226" toLonLat="103.77958899496554,1.2946603633998914" /><trip id="bg39" type="car" depart="155" fromLonLat="103.76975135902238,1.2996233664426124" toLonLat="103.77567261649405,1.294924482094212" /><trip id="bg40" type="car" depart="159" fromLonLat="103.77022028094994,1.2916472023032872" toLonLat="103.7822742185846,1.295217581584925" /><trip id="bg41" type="truck" depart="162" fromLonLat="103.78225094482525,1.2950240027871667" toLonLat="103.78039700861702,1.3012367097944548" /><trip id="bg42" type="car" depart="162" fromLonLat="103.77203421183725,1.291069826881167" toLonLat="103.78079399389975,1.2906518395483535" /><trip id="bg43" type="motorcycle" depart="172" fromLonLat="103.78321156511424,1.3017873032072287" toLonLat="103.77285799425081,1.2943565222087772" /><trip id="bg44" type="car" depart="176" fromLonLat="103.77407187957478,1.2993628086214233" toLonLat="103.77681105648756,1.2906661960841315" /><trip id="bg45" type="motorcycle" depart="176" fromLonLat="103.77462238562552,1.2957028523541887" toLonLat="103.77020953713716,1.297717049830597" /><trip id="bg46" type="car" depart="179" fromLonLat="103.77236693403985,1.2964376690930308" toLonLat="103.78519758590703,1.291461789163191" /><trip id="bg47" type="car" depart="180" fromLonLat="103.7812611147408,1.292960492708626" toLonLat="103.77521046276448,1.2948291020130656" /><trip id="bg48" type="truck" depart="180" fromLonLat="103.77524038245605,1.2918443852062023" toLonLat="103.77077086993698,1.2962115744589553" /><trip id="bg49" type="car" depart="182" fromLonLat="103.78356432721168,1.291576691304932" toLonLat="103.77329470852617,1.2965191664951177" /><trip id="bg50" type="car" depart="184" fromLonLat="103.7832912968905,1.2964922727728978" toLonLat="103.77002784238034,1.289835903508157" /><trip id="bg51" type="car" depart="186" fromLonLat="103.77409050887157,1.3007987407272834" toLonLat="103.78446416485868,1.293337957579807" /><trip id="bg52" type="truck" depart="186" fromLonLat="103.77478913766048,1.2899880033715256" toLonLat="103.77771333778625,1.29500642778918" /><trip id="bg53" type="car" depart="188" fromLonLat="103.78506528180442,1.3003582437756915" toLonLat="103.77375319568266,1.2965766460458705" /><trip id="bg54" type="car" depart="192" fromLonLat="103.78020692654218,1.290167366373259" toLonLat="103.77879391811577,1.2991579753840339" /><trip id="bg55" type="car" depart="195" fromLonLat="103.77681105648756,1.2906661960841315" toLonLat="103.77763320577662,1.289112086360436" /><trip id="bg56" type="car" depart="196" fromLonLat="103.78500651436934,1.2899645321213897" toLonLat="103.78024460778815,1.2963246369260106" /><trip id="bg57" type="truck" depart="203" fromLonLat="103.77272377667389,1.3018991418105585" toLonLat="103.78288722119605,1.2967231825286747" /><trip id="delivery116" type="delivery" depart="205" from="652155956" to="644246501#0" /><trip id="bg58" type="bus" depart="206" fromLonLat="103.77013367037452,1.2938394382953817" toLonLat="103.77234851429515,1.2919452816126302" /><trip id="bg59" type="car" depart="207" fromLonLat="103.77307509351714,1.2972109252898478" toLonLat="103.77344781659208,1.296207544169342" /><trip id="bg60" type="car" depart="210" fromLonLat="103.77862071409594,1.2997707034025787" toLonLat="103.77205239422422,1.2943767527489414" /><trip id="bg61" type="car" depart="213" fromLonLat="103.77279277354336,1.2984113542492473" toLonLat="103.78484673468851,1.2999466708134844" /><trip id="bg62" type="car" depart="224" fromLonLat="103.77073672124632,1.3019717952685452" toLonLat="103.77687230690002,1.2937567877125333" /><trip id="delivery1997" type="delivery" depart="224" from="646745633" to="-634148645#0" /><trip id="bg63" type="car" depart="225" fromLonLat="103.78563183315666,1.2927944499423132" toLonLat="103.78125149173886,1.294481530403258" /><trip id="bg64" type="car" depart="229" fromLonLat="103.78069896739416,1.2911010691460123" toLonLat="103.77134208249434,1.2967669558552255" /><trip id="delivery1676" type="delivery" depart="233" from="-652283342" to="-643612172" /><trip id="bg65" type="bus" depart="239" fromLonLat="103.7838881748482,1.2937448955826238" toLonLat="103.77608879364467,1.2938190906128568" /><trip id="bg66" type="motorcycle" depart="240" fromLonLat="103.781603035913,1.2945371475678293" toLonLat="103.77262311789048,1.2994909039677645" /><trip id="bg67" type="car" depart="246" fromLonLat="103.77053190887753,1.2978831864683216" toLonLat="103.77608879364467,1.2938190906128568" /><trip id="bg68" type="bus" depart="247" fromLonLat="103.77132900581415,1.297792853226384" toLonLat="103.78440191651404,1.3004289273246663" /><trip id="bg69" type="car" depart="252" fromLonLat="103.78074962869486,1.2971754025393711" toLonLat="103.78338388091078,1.2953246706124966" /><trip id="bg70" type="bus" depart="253" fromLonLat="103.78106987152694,1.30272099390584" toLonLat="103.77418728031355,1.2995326430978862" /><trip id="bg71" type="car" depart="254" fromLonLat="103.7724729372434,1.2933513247886408" toLonLat="103.76945590177202,1.2934115423854358" /><trip id="delivery931" type="delivery" depart="259" from="479115440#2" to="-646234318" /><trip id="bg72" type="bus" depart="267" fromLonLat="103.77774040830954,1.2908316301733949" toLonLat="103.78465850329134,1.295707899000558" /><trip id="bg73" type="car" depart="271" fromLonLat="103.77088641685815,1.3003573957366188" toLonLat="103.7693930254703,1.2933445774517982" /><trip id="bg74" type="car" depart="273" fromLonLat="103.77140154210193,1.301302326210346" toLonLat="103.77744902534552,1.2944554470573015" /><trip id="bg75" type="car" depart="274" fromLonLat="103.78094876540615,1.2906183564949452" toLonLat="103.77833807270703,1.290388523552464" /><trip id="bg76" type="car" depart="276" fromLonLat="103.78356767403936,1.2917201500579956" toLonLat="103.7694845081473,1.2993099109677124" /><trip id="bg77" type="bus" depart="284" fromLonLat="103.7690621130388,1.2939318091282133" toLonLat="103.77595974272812,1.294190152140984" /><trip id="bg78" type="truck" depart="289" fromLonLat="103.77445114198576,1.2926078681670188" toLonLat="103.76965357881555,1.2979553892899862" /><trip id="bg79" type="car" depart="304" fromLonLat="103.78542781642045,1.2979153047088954" toLonLat="103.77558692431944,1.3000671734108686" /><trip id="bg80" type="car" depart="304" fromLonLat="103.77136347441528,1.2911579625631977" toLonLat="103.78225456074226,1.297049227551647" /><trip id="bg81" type="car" depart="306" fromLonLat="103.77724853082854,1.2916286357201223" toLonLat="103.77294012589562,1.2926918871254884" /><trip id="bg82" type="truck" depart="307" fromLonLat="103.7806823795216,1.3021022035448684" toLonLat="103.77134208249434,1.2967669558552255" /><trip id="delivery425" type="delivery" depart="314" from="546382551" to="1152422148" /><trip id="bg83" type="truck" depart="315" fromLonLat="103.7841346652476,1.3030084035464233" toLonLat="103.77025434099812,1.3005896372576593" /><trip id="bg84" type="bus" depart="321" fromLonLat="103.77514546062345,1.2950713005454606" toLonLat="103.77203368231669,1.3007519656181958" /><trip id="bg85" type="car" depart="324" fromLonLat="103.7727007818082,1.2968476690820854" toLonLat="103.7833236131154,1.301829146518531" /><trip id="bg86" type="bus" depart="325" fromLonLat="103.78405113104034,1.2952075860011432" toLonLat="103.77692215917244,1.2917441656921647" /><trip id="delivery1271" type="delivery" depart="325" from="-44135002#1" to="644246501#1" /><trip id="delivery648" type="delivery" depart="327" from="-173059404" to="-526855209" /><trip id="delivery171" type="delivery" depart="340" from="1152422152#1" to="858570011#1" /><trip id="delivery295" type="delivery" depart="341" from="1314567919" to="540790023#1" /><trip id="bg87" type="car" depart="342" fromLonLat="103.78036803103123,1.2919310784082862" toLonLat="103.77655509851535,1.2901220037939394" /><trip id="delivery1815" type="delivery" depart="342" from="-728061426#1" to="792847946" /><trip id="bg88" type="car" depart="345" fromLonLat="103.77105363620014,1.2950164832569477" toLonLat="103.77150791966292,1.2937236065481925" /><trip id="bg89" type="bus" depart="346" fromLonLat="103.77064696588396,1.297833584760554" toLonLat="103.78109594279151,1.3013928082718653" /><trip id="delivery84" type="delivery" depart="346" from="1150608648" to="526617894" /><trip id="bg90" type="car" depart="352" fromLonLat="103.77937653530043,1.292419582859813" toLonLat="103.77156701464325,1.2913740603675348" /><trip id="delivery125" type="delivery" depart="359" from="-140075865#0" to="643888048" /><trip id="bg91" type="car" depart="363" fromLonLat="103.77965014366133,1.3024520215527964" toLonLat="103.77051969092227,1.2997336418262846" /><trip id="bg92" type="car" depart="364" fromLonLat="103.77013367037452,1.2938394382953817" toLonLat="103.77308311142818,1.2921234670119954" /><trip id="bg93" type="motorcycle" depart="365" fromLonLat="103.78212220362897,1.295688220889506" toLonLat="103.78132697921426,1.290907171551674" /><trip id="bg94" type="car" depart="370" fromLonLat="103.7831312273925,1.2919909344055587" toLonLat="103.77038417371425,1.302319228183435" /><trip id="bg95" type="motorcycle" depart="370" fromLonLat="103.772608236102,1.290823081987572" toLonLat="103.7694552186966,1.3024464896776153" /><trip id="bg96" type="car" depart="376" fromLonLat="103.78492667128033,1.2960934453427448" toLonLat="103.77336994596257,1.2951771695097267" /><trip id="bg97" type="car" depart="384" fromLonLat="103.78085598476062,1.2997178809894454" toLonLat="103.77038417371425,1.302319228183435" /><trip id="bg98" type="motorcycle" depart="386" fromLonLat="103.77080118464981,1.3024729294832713" toLonLat="103.77267582400435,1.2971668612938558" /><trip id="bg99" type="bus" depart="388" fromLonLat="103.77527538651265,1.2896846824197161" toLonLat="103.77914898450388,1.2897840627104884" /><trip id="bg100" type="car" depart="389" fromLonLat="103.78089913983486,1.2946118822846366" toLonLat="103.77865647219191,1.294732001709212" /><trip id="bg101" type="bus" depart="389" fromLonLat="103.77989578931843,1.2922585579728139" toLonLat="103.77459453524165,1.2900613559747616" /><trip id="bg102" type="bus" depart="392" fromLonLat="103.78462836695262,1.2936950515729269" toLonLat="103.7806823795216,1.3021022035448684" /><trip id="bg103" type="truck" depart="394" fromLonLat="103.77136347441528,1.2911579625631977" toLonLat="103.77833807270703,1.290388523552464" /><trip id="bg104" type="car" depart="399" fromLonLat="103.76979428004944,1.291315579750463" toLonLat="103.77296721812677,1.2987683622959134" /><trip id="delivery111" type="delivery" depart="402" from="1317376715#1" to="103926121" /><trip id="bg105" type="car" depart="403" fromLonLat="103.77444568440394,1.2901179066865285" toLonLat="103.77159366141109,1.2914666054829635" /><trip id="bg106" type="car" depart="410" fromLonLat="103.78120754151803,1.2974972721717197" toLonLat="103.7725463136473,1.2969974723156523" /><trip id="bg107" type="car" depart="411" fromLonLat="103.77989244692625,1.3026105211440722" toLonLat="103.77532304631167,1.2937533219895463" /><trip id="bg108" type="car" depart="413" fromLonLat="103.7818904584438,1.2931789671941156" toLonLat="103.78046771881574,1.2907530788725197" /><trip id="bg109" type="car" depart="414" fromLonLat="103.77761183841088,1.2890668500516969" toLonLat="103.77077086993698,1.2962115744589553" /><trip id="bg110" type="car" depart="415" fromLonLat="103.77262311789048,1.2994909039677645" toLonLat="103.76989109249143,1.3016931507317542" /><trip id="bg111" type="bus" depart="421" fromLonLat="103.77013367037452,1.2938394382953817" toLonLat="103.78117944146958,1.2979993580690277" /><trip id="bg112" type="bus" depart="425" fromLonLat="103.773394126574,1.293107824473302" toLonLat="103.78011685946178,1.2913359634442603" /><trip id="bg113" type="car" depart="425" fromLonLat="103.77252902205123,1.2991232618735402" toLonLat="103.77786857035915,1.290814777649135" /><trip id="bg114" type="car" depart="431" fromLonLat="103.77351986399825,1.292712520677636" toLonLat="103.77022149258701,1.3004989885343767" /><trip id="bg115" type="car" depart="435" fromLonLat="103.77356647194507,1.2993218584028834" toLonLat="103.7823883904091,1.2970213426529387" /><trip id="bg116" type="truck" depart="438" fromLonLat="103.78164969734428,1.2976938580313877" toLonLat="103.77377278201504,1.2971476780243931" /><trip id="bg117" type="car" depart="438" fromLonLat="103.77518863742877,1.2970467906702428" toLonLat="103.78042643378198,1.2968476284306412" /><trip id="bg118" type="truck" depart="440" fromLonLat="103.7810513959142,1.2943889011232068" toLonLat="103.76965393239544,1.2916306451011428" /><trip id="bg119" type="bus" depart="443" fromLonLat="103.77555187149595,1.2937174332889223" toLonLat="103.7755613354509,1.3005767668853208" /><trip id="bg120" type="car" depart="444" fromLonLat="103.7804960140754,1.2983048448866277" toLonLat="103.76971863452644,1.2957426108426777" /><trip id="bg121" type="car" depart="445" fromLonLat="103.77216678637586,1.2934666826658339" toLonLat="103.77359697594909,1.2973779730844317" /><trip id="bg122" type="bus" depart="451" fromLonLat="103.77337213071722,1.2908133223537226" toLonLat="103.7711699662311,1.3025634717755843" /><trip id="bg123" type="car" depart="457" fromLonLat="103.77414966641896,1.2923440545723268" toLonLat="103.77297714348194,1.2930841946290124" /><trip id="bg124" type="car" depart="461" fromLonLat="103.7715833243708,1.3011665567753166" toLonLat="103.78475984172101,1.2937053360520105" /><trip id="bg125" type="car" depart="466" fromLonLat="103.78126720437528,1.2956407719832566" toLonLat="103.77763958540292,1.299436548352506" /><trip id="bg126" type="car" depart="467" fromLonLat="103.78419038343455,1.2919059674308" toLonLat="103.77077381942117,1.290268444663982" /><trip id="bg127" type="bus" depart="467" fromLonLat="103.77151847571176,1.291206610547125" toLonLat="103.7801483100361,1.3014825278848963" /><trip id="bg128" type="car" depart="469" fromLonLat="103.78105529614797,1.2907331915797948" toLonLat="103.78302029662602,1.2954514897211158" /><trip id="bg129" type="truck" depart="472" fromLonLat="103.77006330561952,1.3005328303484527" toLonLat="103.77098924308858,1.2921250714513954" /><trip id="bg130" type="car" depart="477" fromLonLat="103.76962651909706,1.292197582978083" toLonLat="103.77038417371425,1.302319228183435" /><trip id="bg131" type="car" depart="478" fromLonLat="103.78172937094934,1.290056934895908" toLonLat="103.78124134397495,1.2942775560335262" /><trip id="bg132" type="car" depart="479" fromLonLat="103.7719855215775,1.2981274838715289" toLonLat="103.77096378808127,1.291796809684604" /><trip id="bg133" type="truck" depart="480" fromLonLat="103.7836679617867,1.2960739327353492" toLonLat="103.77765822559002,1.2989853830310323" /><trip id="delivery615" type="delivery" depart="480" from="-634317052#0" to="646701789" /><trip id="bg134" type="car" depart="482" fromLonLat="103.77482007609622,1.289751305808074" toLonLat="103.7763458260762,1.2913676064302357" /><trip id="bg135" type="bus" depart="484" fromLonLat="103.78397001215113,1.2953254964722314" toLonLat="103.77391467510331,1.2941802937055515" /><trip id="bg136" type="bus" depart="494" fromLonLat="103.77743678408046,1.2943074617102586" toLonLat="103.78534667209509,1.2978978082073742" /><trip id="bg137" type="car" depart="495" fromLonLat="103.77819440795174,1.2912529942140816" toLonLat="103.77459453524165,1.2900613559747616" /><trip id="bg138" type="car" depart="498" fromLonLat="103.76986700239004,1.293332507278812" toLonLat="103.78530368557617,1.292863035656811" /><trip id="bg139" type="car" depart="501" fromLonLat="103.77771333778625,1.29500642778918" toLonLat="103.7830023984318,1.292086661127168" /><trip id="bg140" type="truck" depart="504" fromLonLat="103.7773827325191,1.2945783391010246" toLonLat="103.77736494276373,1.2975670440249327" /><trip id="bg141" type="truck" depart="508" fromLonLat="103.78105529614797,1.2907331915797948" toLonLat="103.77471209506288,1.2999566663614295" /><trip id="bg142" type="bus" depart="508" fromLonLat="103.76965574484193,1.2960758041466123" toLonLat="103.78537550133858,1.2998197510290614" /><trip id="bg143" type="car" depart="516" fromLonLat="103.77712137017127,1.2918065835804726" toLonLat="103.77577112277218,1.300512196201483" /><trip id="bg144" type="bus" depart="519" fromLonLat="103.76901437718998,1.29396335344992" toLonLat="103.77128986243189,1.293046830718598" /><trip id="delivery1967" type="delivery" depart="519" from="230638330#1" to="847901249" /><trip id="bg145" type="car" depart="521" fromLonLat="103.77757150688572,1.2967277502769399" toLonLat="103.7738087314937,1.2917194094468623" /><trip id="bg146" type="car" depart="523" fromLonLat="103.78446416485868,1.293337957579807" toLonLat="103.7802078755148,1.295709997416718" /><trip id="bg147" type="car" depart="524" fromLonLat="103.77294012589562,1.2926918871254884" toLonLat="103.77443904221802,1.2925398424911814" /><trip id="bg148" type="car" depart="527" fromLonLat="103.78144237453319,1.2944829795124198" toLonLat="103.77389136361003,1.2920065437211892" /><trip id="bg149" type="bus" depart="528" fromLonLat="103.77019190840484,1.297932678085337" toLonLat="103.77931868448229,1.29593777681264" /><trip id="bg150" type="truck" depart="530" fromLonLat="103.7819698969432,1.2956405693829205" toLonLat="103.78325154567143,1.2907046722485505" /><trip id="bg151" type="bus" depart="532" fromLonLat="103.78085977494739,1.2979976653033647" toLonLat="103.77304869258293,1.2949272755512147" /><trip id="bg152" type="car" depart="535" fromLonLat="103.77527538651265,1.2896846824197161" toLonLat="103.78378407221186,1.2911704859730544" /><trip id="bg153" type="car" depart="538" fromLonLat="103.77374768626122,1.2928933541877021" toLonLat="103.78437532164112,1.2921242271880662" /><trip id="bg154" type="car" depart="538" fromLonLat="103.76761461947092,1.291442234837192" toLonLat="103.76914784936619,1.2941162819699585" /><trip id="bg155" type="truck" depart="541" fromLonLat="103.77081369118984,1.3028135768366829" toLonLat="103.78140714211963,1.2903426082266183" /><trip id="bg156" type="car" depart="541" fromLonLat="103.77300968596832,1.2975475549999282" toLonLat="103.76903477198884,1.292109465865997" /><trip id="bg157" type="car" depart="542" fromLonLat="103.77205132505877,1.291177834624905" toLonLat="103.76986834331505,1.2963298060108857" /><trip id="bg158" type="car" depart="544" fromLonLat="103.7821071290721,1.2905483623734122" toLonLat="103.7716503006222,1.3022325635764849" /><trip id="bg159" type="car" depart="547" fromLonLat="103.77089764265139,1.2962803797092313" toLonLat="103.76976086183065,1.2963247786129803" /><trip id="bg160" type="car" depart="548" fromLonLat="103.78172937094934,1.290056934895908" toLonLat="103.76965393239544,1.2916306451011428" /><trip id="bg161" type="car" depart="553" fromLonLat="103.78190096685127,1.2956403551243283" toLonLat="103.78528542547079,1.3002501695466482" /><trip id="bg162" type="car" depart="553" fromLonLat="103.77443026989233,1.2900279900635023" toLonLat="103.77654014611142,1.3004976469252565" /><trip id="bg163" type="bus" depart="556" fromLonLat="103.7717059331853,1.2936589395695715" toLonLat="103.77061228926188,1.2944525726807825" /><trip id="bg164" type="motorcycle" depart="560" fromLonLat="103.77157896185122,1.2962425418082548" toLonLat="103.77250250375191,1.2969010293210745" /><trip id="bg165" type="car" depart="561" fromLonLat="103.7841894139328,1.2952640949373768" toLonLat="103.76985164358065,1.3026119397048337" /><trip id="bg166" type="truck" depart="562" fromLonLat="103.78411506466338,1.2928672570042883" toLonLat="103.76994739175944,1.301794303373022" /><trip id="bg167" type="car" depart="563" fromLonLat="103.78487323158151,1.2941375713769714" toLonLat="103.77217893610963,1.3027451416537492" /><trip id="bg168" type="truck" depart="563" fromLonLat="103.77041678466614,1.2930394404730436" toLonLat="103.78373091641822,1.2952245268145974" /><trip id="bg169" type="bus" depart="563" fromLonLat="103.77239973326193,1.2970038228382605" toLonLat="103.781438928989,1.297179264340013" /><trip id="bg170" type="motorcycle" depart="564" fromLonLat="103.77583879906175,1.3005032744993894" toLonLat="103.77365358848378,1.291403566745632" /><trip id="bg171" type="car" depart="567" fromLonLat="103.781352125852,1.2928285670744042" toLonLat="103.77438603886553,1.2900598981281413" /><trip id="bg172" type="car" depart="569" fromLonLat="103.77756716862059,1.2898300621770367" toLonLat="103.77989244692625,1.3026105211440722" /><trip id="bg173" type="bus" depart="570" fromLonLat="103.77263711463488,1.295996667513599" toLonLat="103.77512543908519,1.2933451975405759" /><trip id="bg174" type="bus" depart="572" fromLonLat="103.77868943828767,1.290439798743912" toLonLat="103.78338994279497,1.292032395744925" /><trip id="bg175" type="bus" depart="575" fromLonLat="103.77139280792102,1.2912699561063703" toLonLat="103.78165997821988,1.2910291711417838" /><trip id="delivery56" type="delivery" depart="580" from="83890919#2" to="-1317317068#1" /><trip id="bg176" type="truck" depart="586" fromLonLat="103.77449144003586,1.2925317272727785" toLonLat="103.77414241990279,1.2988188656747006" /><trip id="delivery676" type="delivery" depart="587" from="645158729" to="1316808633" /><trip id="bg177" type="bus" depart="590" fromLonLat="103.77970928777269,1.2947498787379232" toLonLat="103.77777199230249,1.295257460475367" /><trip id="bg178" type="car" depart="591" fromLonLat="103.77000742386092,1.29454399550248" toLonLat="103.77089764265139,1.2962803797092313" /><trip id="bg179" type="car" depart="597" fromLonLat="103.78143823366125,1.2960023013524864" toLonLat="103.78492066658288,1.3041407041465585" /><trip id="delivery404" type="delivery" depart="600" from="-767802300" to="479115440#3" /><trip id="bg180" type="motorcycle" depart="605" fromLonLat="103.77365358848378,1.291403566745632" toLonLat="103.78181658164341,1.2924328825113816" /><trip id="bg181" type="car" depart="606" fromLonLat="103.78445793657626,1.3003641907058694" toLonLat="103.7736490074243,1.2979440460174398" /><trip id="bg182" type="bus" depart="611" fromLonLat="103.77757150688572,1.2967277502769399" toLonLat="103.77431911287876,1.3006638078784496" /><trip id="delivery403" type="delivery" depart="615" from="1166292704#1" to="646650469" /><trip id="bg183" type="car" depart="616" fromLonLat="103.78089854082253,1.2954892671424871" toLonLat="103.7703400397442,1.2962027710316817" /><trip id="bg184" type="motorcycle" depart="624" fromLonLat="103.78474710849208,1.291566677894759" toLonLat="103.78020692654218,1.290167366373259" /><trip id="delivery130" type="delivery" depart="624" from="884570183#1" to="1316808634" /><trip id="delivery970" type="delivery" depart="628" from="-309856652#1" to="680427362#1" /><trip id="delivery1659" type="delivery" depart="628" from="-634215361" to="-741865396" /><trip id="delivery1582" type="delivery" depart="631" from="738258059#1" to="-647086934#1" /><trip id="bg185" type="car" depart="640" fromLonLat="103.78421926198854,1.2939199898142324" toLonLat="103.7743145978132,1.299963346541782" /><trip id="bg186" type="bus" depart="641" fromLonLat="103.77406278471464,1.2922979723783838" toLonLat="103.78028927144162,1.3013884359119579" /><trip id="bg187" type="truck" depart="642" fromLonLat="103.78423893317942,1.2954507217144176" toLonLat="103.78093352595639,1.2946830847101574" /><trip id="bg188" type="car" depart="644" fromLonLat="103.77101376117885,1.2964520233844887" toLonLat="103.77720050545753,1.2973290754038505" /><trip id="bg189" type="bus" depart="645" fromLonLat="103.77339440161688,1.2988866106181673" toL